BDB50123205
  SciTegic10041214373D

 43 47  0  0  0  0            999 V2000
    2.6480   -1.2280    0.0800 C   0  0
    3.4190    0.1130    0.1220 C   0  0
    2.5630    1.1570    0.1460 C   0  0
    1.2060   -0.7260    0.0850 C   0  0
    1.1980    0.6690    0.1240 C   0  0
    2.8990   -2.0750   -1.2020 C   0  0
    2.8830   -2.1460    1.3160 C   0  0
    2.8340   -3.5190    0.7160 C   0  0
    2.8430   -3.4800   -0.6810 C   0  0
    4.9020    0.2510    0.1360 C   0  0
    0.0130   -1.4410    0.0570 C   0  0
    0.0130    1.3840    0.1360 C   0  0
    5.7640   -0.8590    0.1100 C   0  0
    5.5130    1.5200    0.1750 C   0  0
   -1.1810    0.6680    0.1090 C   0  0
   -1.1910   -0.7330    0.0700 C   0  0
    7.7190    0.5530    0.1620 C   0  0
    6.9070    1.6760    0.1880 C   0  0
    7.1570   -0.7120    0.1230 C   0  0
   -2.3470    1.3810    0.1210 O   0  0
    9.0780    0.6530    0.1730 O   0  0
    2.8210   -4.6490   -1.4260 C   0  0
    2.8030   -4.7270    1.3950 C   0  0
    2.7700   -5.9090    0.6520 C   0  0
    2.7790   -5.8700   -0.7510 C   0  0
    2.7810    2.2120    0.1770 H   0  0
    2.1360   -1.9180   -1.9730 H   0  0
    3.8800   -1.8970   -1.6510 H   0  0
    2.1110   -2.0320    2.0850 H   0  0
    3.8590   -1.9930    1.7860 H   0  0
    0.0070   -2.5260    0.0270 H   0  0
    0.0050    2.4680    0.1670 H   0  0
    5.3860   -1.8760    0.0790 H   0  0
    4.9210    2.4310    0.1970 H   0  0
   -2.1260   -1.2850    0.0480 H   0  0
    7.3260    2.6770    0.2190 H   0  0
    7.7960   -1.5910    0.1030 H   0  0
   -3.0910    0.7580    0.0990 H   0  0
    9.3200    1.5930    0.2010 H   0  0
    2.8340   -4.6200   -2.5110 H   0  0
    2.8030   -4.7600    2.4800 H   0  0
    2.7420   -6.8680    1.1630 H   0  0
    2.7570   -6.7990   -1.3150 H   0  0
  1  2  1  0
  1  4  1  0
  1  6  1  0
  1  7  1  0
  2  3  2  0
  2 10  1  0
  3  5  1  0
  3 26  1  0
  4  5  2  0
  4 11  1  0
  5 12  1  0
  6  9  1  0
  6 27  1  0
  6 28  1  0
  7  8  1  0
  7 29  1  0
  7 30  1  0
  8  9  2  0
  8 23  1  0
  9 22  1  0
 10 13  2  0
 10 14  1  0
 11 16  2  0
 11 31  1  0
 12 15  2  0
 12 32  1  0
 13 19  1  0
 13 33  1  0
 14 18  2  0
 14 34  1  0
 15 16  1  0
 15 20  1  0
 16 35  1  0
 17 18  1  0
 17 19  2  0
 17 21  1  0
 18 36  1  0
 19 37  1  0
 20 38  1  0
 21 39  1  0
 22 25  2  0
 22 40  1  0
 23 24  2  0
 23 41  1  0
 24 25  1  0
 24 42  1  0
 25 43  1  0
M  END
> <Name>
BDB50123205

> <Target>
Estrogen Receptor (ER-beta)

> <IC50_in_nM>
2.0999999

> <Kd_from_ITC>
false

> <Uniprot_ID>
Q92731

> <source_organism>
Homo sapiens

$$$$
BDB50189069
  SciTegic10041214373D

 47 51  0  0  1  0            999 V2000
    4.1440   -2.6560    1.0940 C   0  0
    2.7730   -2.5010    0.8320 C   0  0
    2.1880   -1.2380    0.8320 C   0  0
    2.9640   -0.0870    1.0600 C   0  0
    2.1360    1.1650    0.9840 C   0  0
    0.7970   -0.8140    0.5750 C   0  0
    0.8750    0.6720    0.2150 C   0  0  1  0  0  0
   -0.3660    1.4060    0.7490 C   0  0
   -1.6730    0.7480    0.3460 C   0  0
   -1.6640   -0.7610    0.4860 C   0  0
   -0.3650   -1.4810    0.7380 C   0  0
   -2.7190   -1.3890    0.3790 O   0  0
    4.3280   -0.2190    1.3280 C   0  0
    4.8800   -1.4930    1.3390 C   0  0
    6.1950   -1.2530    1.6220 N   0  0
    6.4450    0.0580    1.7750 N   0  0
    5.3000    0.7060    1.5950 N   0  0
    1.1140    0.9180   -1.3140 C   0  0
    0.3420    0.0420   -2.3100 C   0  0
    0.7040    0.4030   -3.7530 C   0  0
   -0.0510   -0.4620   -4.7500 C   0  0
   -0.4340   -2.8390    1.1510 C   0  0
   -0.3110   -3.1800    2.8280 S   0  0
   -0.5020   -4.8600    2.5640 C   0  0
   -0.6860   -5.1570    1.2320 C   0  0
   -0.6550   -3.9890    0.4160 C   0  0
    4.6050   -3.6390    1.0980 H   0  0
    2.1900   -3.3900    0.6170 H   0  0
    2.6630    1.9720    0.4640 H   0  0
    1.9060    1.4940    2.0040 H   0  0
   -0.3640    2.4560    0.4320 H   0  0
   -0.3350    1.4250    1.8480 H   0  0
   -2.4730    1.1370    0.9870 H   0  0
   -1.9350    1.0030   -0.6840 H   0  0
    6.9600   -1.9100    1.7230 H   0  0
    2.1810    0.7770   -1.5370 H   0  0
    0.9110    1.9750   -1.5350 H   0  0
    0.5790   -1.0150   -2.1440 H   0  0
   -0.7360    0.1600   -2.1840 H   0  0
    1.7810    0.2750   -3.9110 H   0  0
    0.4700    1.4570   -3.9430 H   0  0
   -1.1320   -0.3340   -4.6410 H   0  0
    0.1860   -1.5220   -4.6070 H   0  0
    0.2230   -0.1880   -5.7730 H   0  0
   -0.4820   -5.5460    3.3990 H   0  0
   -0.8430   -6.1620    0.8610 H   0  0
   -0.7920   -3.9900   -0.6590 H   0  0
  1  2  1  0
  1 14  2  0
  1 27  1  0
  2  3  2  0
  2 28  1  0
  3  4  1  0
  3  6  1  0
  4  5  1  0
  4 13  2  0
  5  7  1  0
  5 29  1  0
  5 30  1  0
  6  7  1  0
  6 11  2  0
  7  8  1  0
  7 18  1  0
  8  9  1  0
  8 31  1  0
  8 32  1  0
  9 10  1  0
  9 33  1  0
  9 34  1  0
 10 11  1  0
 10 12  2  0
 11 22  1  0
 13 14  1  0
 13 17  1  0
 14 15  1  0
 15 16  1  0
 15 35  1  0
 16 17  2  0
 18 19  1  0
 18 36  1  0
 18 37  1  0
 19 20  1  0
 19 38  1  0
 19 39  1  0
 20 21  1  0
 20 40  1  0
 20 41  1  0
 21 42  1  0
 21 43  1  0
 21 44  1  0
 22 23  1  0
 22 26  2  0
 23 24  1  0
 24 25  2  0
 24 45  1  0
 25 26  1  0
 25 46  1  0
 26 47  1  0
M  END
> <Name>
BDB50189069

> <Target>
Estrogen Receptor (ER-beta)

> <IC50_in_nM>
2.3

> <Kd_from_ITC>
false

> <Uniprot_ID>
Q92731

> <source_organism>
Homo sapiens

$$$$
BDB50174924
  SciTegic10041214373D

 67 71  0  0  1  0            999 V2000
    1.4870   -0.3010   -0.8940 C   0  0
    0.4610   -0.8150   -1.6700 C   0  0
   -0.7870   -0.1930   -1.7240 C   0  0
    1.2950    0.8620   -0.1430 C   0  0
    0.0390    1.4940   -0.1940 C   0  0
   -1.0040    0.9840   -0.9710 C   0  0
   -2.1310    1.8470   -0.8060 C   0  0
   -1.7550    2.8710    0.0550 C   0  0
   -0.4390    2.6370    0.4310 N   0  0
   -3.4600    1.6800   -1.4590 C   0  0
    0.7130   -1.9530   -2.3830 O   0  0
    0.3530    3.4500    1.3620 C   0  0
    0.4500    4.9060    0.9780 C   0  0
    0.8130    5.3050   -0.3180 C   0  0
    0.7940    6.6550   -0.6720 C   0  0
    0.4210    7.6050    0.2740 C   0  0
    0.1540    7.2370    1.5900 C   0  0
    0.1670    5.8890    1.9400 C   0  0
   -2.5420    4.0390    0.4630 C   0  0
   -3.0120    4.1760    1.7740 C   0  0
   -3.7300    5.3160    2.1500 C   0  0
   -3.9830    6.3110    1.2080 C   0  0
   -3.5460    6.1760   -0.1040 C   0  0
   -2.8290    5.0400   -0.4770 C   0  0
   -4.6640    7.4480    1.5370 O   0  0
    0.3280    8.9210   -0.0960 O   0  0
   -1.0510    9.2480   -0.3450 C   0  0
   -1.1810   10.7760   -0.4470 C   0  0  1  0  0  0
   -2.5310   11.2230   -0.9900 N   0  3
   -3.7740   10.7980   -0.2270 C   0  0
   -4.8480   10.7550   -1.2940 C   0  0
   -4.1080   10.1970   -2.4920 C   0  0
   -2.7740   10.9190   -2.4630 C   0  0
   -0.9420   11.4580    0.9000 C   0  0
    2.4490   -0.8050   -0.8700 H   0  0
   -1.5890   -0.5950   -2.3330 H   0  0
    2.1110    1.2490    0.4590 H   0  0
   -4.2670    2.0490   -0.8180 H   0  0
   -3.6700    0.6260   -1.6700 H   0  0
   -3.4880    2.2320   -2.4040 H   0  0
   -0.0890   -2.1920   -2.8760 H   0  0
    1.3650    3.0420    1.4360 H   0  0
   -0.1210    3.3200    2.3420 H   0  0
    1.0720    4.5630   -1.0720 H   0  0
    1.0390    6.9550   -1.6860 H   0  0
   -0.0940    7.9880    2.3340 H   0  0
   -0.0830    5.6070    2.9610 H   0  0
   -2.8160    3.4010    2.5110 H   0  0
   -4.0750    5.4080    3.1760 H   0  0
   -3.7590    6.9490   -0.8340 H   0  0
   -2.4770    4.9430   -1.5020 H   0  0
   -4.9920    7.3510    2.4470 H   0  0
   -1.6890    8.8720    0.4640 H   0  0
   -1.3560    8.7680   -1.2820 H   0  0
   -0.4360   11.1630   -1.1530 H   0  0
   -2.5200   12.2510   -0.9370 H   0  0
   -3.9680   11.5320    0.5600 H   0  0
   -3.6060    9.8070    0.2000 H   0  0
   -5.7000   10.1350   -1.0010 H   0  0
   -5.2160   11.7660   -1.5080 H   0  0
   -4.6450   10.3590   -3.4310 H   0  0
   -3.9540    9.1180   -2.3730 H   0  0
   -2.8210   11.8860   -2.9750 H   0  0
   -1.9520   10.3240   -2.8680 H   0  0
    0.0700   11.2510    1.2650 H   0  0
   -1.6480   11.1100    1.6610 H   0  0
   -1.0440   12.5460    0.8140 H   0  0
  1  2  2  0
  1  4  1  0
  1 35  1  0
  2  3  1  0
  2 11  1  0
  3  6  2  0
  3 36  1  0
  4  5  2  0
  4 37  1  0
  5  6  1  0
  5  9  1  0
  6  7  1  0
  7  8  2  0
  7 10  1  0
  8  9  1  0
  8 19  1  0
  9 12  1  0
 10 38  1  0
 10 39  1  0
 10 40  1  0
 11 41  1  0
 12 13  1  0
 12 42  1  0
 12 43  1  0
 13 14  1  0
 13 18  2  0
 14 15  2  0
 14 44  1  0
 15 16  1  0
 15 45  1  0
 16 17  2  0
 16 26  1  0
 17 18  1  0
 17 46  1  0
 18 47  1  0
 19 20  1  0
 19 24  2  0
 20 21  2  0
 20 48  1  0
 21 22  1  0
 21 49  1  0
 22 23  2  0
 22 25  1  0
 23 24  1  0
 23 50  1  0
 24 51  1  0
 25 52  1  0
 26 27  1  0
 27 28  1  0
 27 53  1  0
 27 54  1  0
 28 29  1  0
 28 34  1  0
 28 55  1  0
 29 30  1  0
 29 33  1  0
 29 56  1  0
 30 31  1  0
 30 57  1  0
 30 58  1  0
 31 32  1  0
 31 59  1  0
 31 60  1  0
 32 33  1  0
 32 61  1  0
 32 62  1  0
 33 63  1  0
 33 64  1  0
 34 65  1  0
 34 66  1  0
 34 67  1  0
M  CHG  1  29   1
M  END
> <Name>
BDB50174924

> <Target>
Estrogen Receptor (ER-beta)

> <IC50_in_nM>
2.3

> <Kd_from_ITC>
false

> <Uniprot_ID>
Q92731

> <source_organism>
Homo sapiens

$$$$
BDB50154066
  SciTegic10041214373D

 27 29  0  0  0  0            999 V2000
    1.1410   -0.7540    0.2760 C   0  0
   -0.0340   -1.4040   -0.1130 C   0  0
   -1.2290   -0.7160   -0.3380 C   0  0
    1.1670    0.6370    0.4590 C   0  0
   -0.0190    1.3490    0.2400 C   0  0
   -1.1560    0.6590   -0.1450 C   0  0
   -2.1620    1.5660   -0.2950 O   0  0
   -1.5840    2.7710    0.0190 C   0  0
   -0.3010    2.6890    0.3340 N   0  0
   -2.4150    3.9740   -0.0690 C   0  0
   -3.8620    6.3810   -0.2320 C   0  0
   -4.5370    5.1660   -0.2620 C   0  0
   -3.8160    3.9690   -0.1790 C   0  0
   -2.4790    6.4230   -0.1170 C   0  0
   -1.7650    5.2240   -0.0340 C   0  0
    0.0280   -2.7620   -0.2690 O   0  0
   -4.5100    2.7890   -0.1900 O   0  0
   -4.6050    7.5220   -0.3160 O   0  0
    2.0470   -1.3340    0.4380 H   0  0
   -2.1510   -1.1930   -0.6390 H   0  0
    2.0750    1.1470    0.7600 H   0  0
   -5.6200    5.1710   -0.3470 H   0  0
   -1.9410    7.3650   -0.0890 H   0  0
   -0.6790    5.2700    0.0560 H   0  0
   -0.8480   -3.0870   -0.5370 H   0  0
   -5.4600    2.9710   -0.2750 H   0  0
   -4.0080    8.2880   -0.2820 H   0  0
  1  2  2  0
  1  4  1  0
  1 19  1  0
  2  3  1  0
  2 16  1  0
  3  6  2  0
  3 20  1  0
  4  5  2  0
  4 21  1  0
  5  6  1  0
  5  9  1  0
  6  7  1  0
  7  8  1  0
  8  9  2  0
  8 10  1  0
 10 13  1  0
 10 15  2  0
 11 12  1  0
 11 14  2  0
 11 18  1  0
 12 13  2  0
 12 22  1  0
 13 17  1  0
 14 15  1  0
 14 23  1  0
 15 24  1  0
 16 25  1  0
 17 26  1  0
 18 27  1  0
M  END
> <Name>
BDB50154066

> <Target>
Estrogen Receptor (ER-beta)

> <IC50_in_nM>
3

> <Kd_from_ITC>
false

> <Uniprot_ID>
Q92731

> <source_organism>
Homo sapiens

$$$$
BDB50201159
  SciTegic10041214373D

 33 35  0  0  0  0            999 V2000
    2.3610   -2.7600   -0.8400 C   0  0
    1.1720   -3.4530   -0.7050 C   0  0
    0.0170   -2.7770   -0.3080 C   0  0
    2.3920   -1.3920   -0.5780 C   0  0
    1.2390   -0.6740   -0.1740 C   0  0
    0.0090   -1.3840   -0.0320 C   0  0
   -1.1480   -0.6600    0.3760 C   0  0
   -1.0800    0.7150    0.6330 C   0  0
    0.1200    1.3970    0.4910 C   0  0
    1.2850    0.7270    0.0900 C   0  0
    2.5160    1.5230   -0.0500 C   0  0
    3.3770    1.7170    1.0450 C   0  0
    4.5450    2.4770    0.9180 C   0  0
    4.8580    3.0500   -0.3110 C   0  0
    4.0110    2.8670   -1.4010 C   0  0
    2.8480    2.1120   -1.2790 C   0  0
    5.9910    3.7970   -0.4700 O   0  0
   -2.4720   -1.3110    0.5460 C   0  0
   -3.5240   -0.6510    0.9240 N   0  0
   -4.6100   -1.5310    0.9920 O   0  0
    4.3060    3.4140   -2.5890 F   0  0
    3.2650   -3.2770   -1.1490 H   0  0
    1.1360   -4.5200   -0.9080 H   0  0
   -0.8820   -3.3800   -0.2210 H   0  0
    3.3490   -0.8860   -0.6970 H   0  0
   -1.9630    1.2700    0.9440 H   0  0
    0.1450    2.4660    0.6940 H   0  0
    3.1380    1.2720    2.0100 H   0  0
    5.1880    2.6090    1.7830 H   0  0
    2.2080    1.9870   -2.1480 H   0  0
    6.4850    3.8070    0.3660 H   0  0
   -2.5630   -2.3890    0.3450 H   0  0
   -5.3320   -0.9440    1.2800 H   0  0
  1  2  1  0
  1  4  2  0
  1 22  1  0
  2  3  2  0
  2 23  1  0
  3  6  1  0
  3 24  1  0
  4  5  1  0
  4 25  1  0
  5  6  1  0
  5 10  2  0
  6  7  2  0
  7  8  1  0
  7 18  1  0
  8  9  2  0
  8 26  1  0
  9 10  1  0
  9 27  1  0
 10 11  1  0
 11 12  1  0
 11 16  2  0
 12 13  2  0
 12 28  1  0
 13 14  1  0
 13 29  1  0
 14 15  2  0
 14 17  1  0
 15 16  1  0
 15 21  1  0
 16 30  1  0
 17 31  1  0
 18 19  2  0
 18 32  1  0
 19 20  1  0
 20 33  1  0
M  END
> <Name>
BDB50201159

> <Target>
Estrogen Receptor (ER-beta)

> <IC50_in_nM>
4

> <Kd_from_ITC>
false

> <Uniprot_ID>
Q92731

> <source_organism>
Homo sapiens

$$$$
BDB50223235
  SciTegic10041214373D

 52 55  0  0  1  0            999 V2000
   -0.8950   -1.9480    4.0210 C   0  0
   -0.5010   -0.7470    4.8360 C   0  0
   -0.2420    0.4440    4.2700 C   0  0
   -0.6040   -1.7750    2.5260 C   0  0
   -1.0390   -0.3890    1.9750 C   0  0  1  0  0  0
   -0.3680    0.6950    2.8400 C   0  0
    0.1130    1.8410    2.3230 C   0  0
    0.0880    2.1950    0.8680 C   0  0
   -0.5390   -0.2430    0.4820 C   0  0  2  0  0  0
   -0.7210    1.2250   -0.0120 C   0  0  2  0  0  0
   -0.7520   -1.0550   -1.9730 C   0  0
   -1.0660    0.3820   -2.4060 C   0  0  1  0  0  0
   -0.2890    1.3320   -1.4770 C   0  0  1  0  0  0
   -0.3930    2.6840   -2.1780 C   0  0
   -0.3640    2.3300   -3.6760 C   0  0
   -0.4510    0.7940   -3.7570 C   0  0  2  0  0  0
   -2.5760   -0.3080    2.0350 C   0  0
   -2.5990    0.6030   -2.4190 C   0  0
   -1.2210    0.3690   -4.8650 O   0  0
   -1.1310   -1.2930   -0.5020 C   0  0
   -3.3370    0.6710    2.5460 C   0  0
   -0.4080   -0.9580    6.3190 C   0  0
   -0.3490   -2.8320    4.3740 H   0  0
   -1.9620   -2.1510    4.1780 H   0  0
    0.0740    1.2770    4.8950 H   0  0
   -1.0980   -2.5930    1.9870 H   0  0
    0.4750   -1.9100    2.3640 H   0  0
    0.5910    2.5740    2.9700 H   0  0
   -0.3210    3.2060    0.7560 H   0  0
    1.1290    2.2370    0.5250 H   0  0
    0.5470   -0.4350    0.4850 H   0  0
   -1.7770    1.5080    0.0720 H   0  0
    0.3190   -1.2620   -2.0950 H   0  0
   -1.2790   -1.7750   -2.6110 H   0  0
    0.7770    1.0510   -1.5130 H   0  0
   -1.3290    3.1960   -1.9260 H   0  0
    0.4320    3.3510   -1.9090 H   0  0
    0.5660    2.6780   -4.1400 H   0  0
   -1.1870    2.8190   -4.2080 H   0  0
    0.5570    0.3750   -3.8660 H   0  0
   -3.1060   -1.1610    1.6140 H   0  0
   -3.0510    0.4910   -1.4300 H   0  0
   -3.0870   -0.1250   -3.0770 H   0  0
   -2.8740    1.5980   -2.7810 H   0  0
   -0.8080    0.7350   -5.6660 H   0  0
   -0.7810   -2.2940   -0.2240 H   0  0
   -2.2220   -1.3230   -0.4280 H   0  0
   -2.9160    1.5640    2.9930 H   0  0
   -4.4200    0.5920    2.5280 H   0  0
    0.3480   -1.7170    6.5490 H   0  0
   -1.3720   -1.2970    6.7140 H   0  0
   -0.1340   -0.0420    6.8510 H   0  0
  1  2  1  0
  1  4  1  0
  1 23  1  0
  1 24  1  0
  2  3  2  0
  2 22  1  0
  3  6  1  0
  3 25  1  0
  4  5  1  0
  4 26  1  0
  4 27  1  0
  5  6  1  0
  5  9  1  0
  5 17  1  0
  6  7  2  0
  7  8  1  0
  7 28  1  0
  8 10  1  0
  8 29  1  0
  8 30  1  0
  9 10  1  0
  9 20  1  0
  9 31  1  0
 10 13  1  0
 10 32  1  0
 11 12  1  0
 11 20  1  0
 11 33  1  0
 11 34  1  0
 12 13  1  0
 12 16  1  0
 12 18  1  0
 13 14  1  0
 13 35  1  0
 14 15  1  0
 14 36  1  0
 14 37  1  0
 15 16  1  0
 15 38  1  0
 15 39  1  0
 16 19  1  0
 16 40  1  0
 17 21  2  0
 17 41  1  0
 18 42  1  0
 18 43  1  0
 18 44  1  0
 19 45  1  0
 20 46  1  0
 20 47  1  0
 21 48  1  0
 21 49  1  0
 22 50  1  0
 22 51  1  0
 22 52  1  0
M  END
> <Name>
BDB50223235

> <Target>
Estrogen Receptor (ER-beta)

> <IC50_in_nM>
9

> <Kd_from_ITC>
false

> <Uniprot_ID>
Q92731

> <source_organism>
Homo sapiens

$$$$
BDB50175417
  SciTegic10041214373D

 35 38  0  0  0  0            999 V2000
    4.2000    4.4200   -1.2430 C   0  0
    3.7130    5.3000   -0.2820 C   0  0
    2.8310    4.8630    0.7000 C   0  0
    2.4280    3.5250    0.7200 C   0  0
    2.9120    2.6280   -0.2420 C   0  0
    3.8020    3.0820   -1.2260 C   0  0
    2.5090    1.2630   -0.2170 N   0  0
    2.6040   -0.9700   -0.4420 N   0  0
    3.2940    0.1490   -0.4890 C   0  0
    1.3390   -0.6050   -0.0780 C   0  0
    1.2340    0.7770    0.0740 C   0  0
    0.0030    1.3860    0.3740 C   0  0
   -1.1060    0.5550    0.5780 C   0  0
   -1.0020   -0.8290    0.4660 C   0  0
    0.2160   -1.4230    0.1290 C   0  0
    4.1320    6.5970   -0.3380 O   0  0
    4.7150    0.0630   -0.7000 C   0  0
    5.8070    0.6020    0.0180 C   0  0
    6.9690    0.2520   -0.5530 N   0  0
    6.6350   -0.5580   -1.6270 O   0  0
    5.2870   -0.6790   -1.6990 C   0  0
    5.8210    1.4260    1.2480 C   0  0
    4.8840    4.7780   -2.0080 H   0  0
    2.4560    5.5420    1.4610 H   0  0
    1.7760    3.1990    1.5270 H   0  0
    4.1730    2.4300   -2.0130 H   0  0
   -0.1140    2.4620    0.4290 H   0  0
   -2.0680    1.0020    0.8180 H   0  0
   -1.8780   -1.4530    0.6250 H   0  0
    0.2990   -2.5000    0.0190 H   0  0
    3.7060    7.0940    0.3810 H   0  0
    4.9090   -1.3060   -2.4940 H   0  0
    4.8970    1.3060    1.8210 H   0  0
    5.9410    2.4850    0.9990 H   0  0
    6.6500    1.1360    1.9020 H   0  0
  1  2  1  0
  1  6  2  0
  1 23  1  0
  2  3  2  0
  2 16  1  0
  3  4  1  0
  3 24  1  0
  4  5  2  0
  4 25  1  0
  5  6  1  0
  5  7  1  0
  6 26  1  0
  7  9  1  0
  7 11  1  0
  8  9  2  0
  8 10  1  0
  9 17  1  0
 10 11  1  0
 10 15  2  0
 11 12  2  0
 12 13  1  0
 12 27  1  0
 13 14  2  0
 13 28  1  0
 14 15  1  0
 14 29  1  0
 15 30  1  0
 16 31  1  0
 17 18  1  0
 17 21  2  0
 18 19  2  0
 18 22  1  0
 19 20  1  0
 20 21  1  0
 21 32  1  0
 22 33  1  0
 22 34  1  0
 22 35  1  0
M  END
> <Name>
BDB50175417

> <Target>
Estrogen Receptor (ER-beta)

> <IC50_in_nM>
14.3

> <Kd_from_ITC>
false

> <Uniprot_ID>
Q92731

> <source_organism>
Homo sapiens

$$$$
BDB50180478
  SciTegic10041214373D

 37 39  0  0  0  0            999 V2000
    3.8310   -3.3460   -0.7340 C   0  0
    4.9380   -2.7000   -0.1960 C   0  0
    4.8310   -1.3990    0.2940 C   0  0
    2.5860   -2.7070   -0.7720 C   0  0
    2.4010   -1.4200   -0.2480 C   0  0
    3.5640   -0.7800    0.2100 C   0  0
    3.5210    0.5940    0.5410 O   0  0
    2.4710    1.4090    0.1600 C   0  0
    1.1160   -0.6810   -0.2280 C   0  0
    1.1920    0.7240   -0.1430 C   0  0
    0.0590    1.5430   -0.2830 C   0  0
   -1.2050    0.9880   -0.4650 C   0  0
   -1.3240   -0.4040   -0.3890 C   0  0
   -0.1880   -1.2520   -0.2660 C   0  0
    2.5740    2.6290    0.1520 O   0  0
    6.1100   -3.4040   -0.2170 O   0  0
    6.0230   -0.6560    0.8270 C   0  0
   -2.3830    1.8960   -0.6640 C   0  0
   -2.5700   -0.9790   -0.5050 O   0  0
   -3.2590   -0.9580    0.7480 C   0  0
   -0.4380   -2.7390   -0.1720 C   0  0
    3.9370   -4.3480   -1.1430 H   0  0
    1.7810   -3.2460   -1.2590 H   0  0
    0.1660    2.6270   -0.2500 H   0  0
    6.8370   -2.8400    0.0890 H   0  0
    6.6730   -0.3490    0.0020 H   0  0
    6.5910   -1.2860    1.5200 H   0  0
    5.7410    0.2380    1.3930 H   0  0
   -2.0840    2.8120   -1.1850 H   0  0
   -2.8150    2.1720    0.3030 H   0  0
   -3.1540    1.4210   -1.2800 H   0  0
   -3.7300    0.0150    0.9150 H   0  0
   -2.6020   -1.2070    1.5900 H   0  0
   -4.0510   -1.7120    0.7040 H   0  0
   -0.4130   -3.1930   -1.1670 H   0  0
   -1.4110   -2.9690    0.2730 H   0  0
    0.2860   -3.2230    0.4910 H   0  0
  1  2  2  0
  1  4  1  0
  1 22  1  0
  2  3  1  0
  2 16  1  0
  3  6  2  0
  3 17  1  0
  4  5  2  0
  4 23  1  0
  5  6  1  0
  5  9  1  0
  6  7  1  0
  7  8  1  0
  8 10  1  0
  8 15  2  0
  9 10  1  0
  9 14  2  0
 10 11  2  0
 11 12  1  0
 11 24  1  0
 12 13  2  0
 12 18  1  0
 13 14  1  0
 13 19  1  0
 14 21  1  0
 16 25  1  0
 17 26  1  0
 17 27  1  0
 17 28  1  0
 18 29  1  0
 18 30  1  0
 18 31  1  0
 19 20  1  0
 20 32  1  0
 20 33  1  0
 20 34  1  0
 21 35  1  0
 21 36  1  0
 21 37  1  0
M  END
> <Name>
BDB50180478

> <Target>
Estrogen Receptor (ER-beta)

> <IC50_in_nM>
16

> <Kd_from_ITC>
false

> <Uniprot_ID>
Q92731

> <source_organism>
Homo sapiens

$$$$
BDB50180459
  SciTegic10041214373D

 26 28  0  0  0  0            999 V2000
    1.0030   -0.8530    0.5380 C   0  0
   -0.1070   -1.5500    0.0200 C   0  0
   -1.1660   -0.7050   -0.4000 C   0  0
    1.0960    0.5500    0.6000 C   0  0
    0.0750    1.3650    0.1180 C   0  0
   -1.0720    0.7040   -0.3220 C   0  0
   -2.2070    1.4680   -0.6600 O   0  0
   -2.3770    2.6300    0.0780 C   0  0
    0.0890    2.8400    0.0860 C   0  0
   -1.1630    3.4970    0.1010 C   0  0
   -1.2650    4.9130    0.1130 C   0  0
   -0.1170    5.7500    0.1150 C   0  0
    1.1040    5.0530    0.0440 C   0  0
    1.2380    3.6470   -0.0120 C   0  0
   -3.4530    2.9130    0.5810 O   0  0
   -0.1110   -2.8280   -0.0260 O   0  5
   -0.1260    7.0290    0.1530 O   0  5
   -2.6510   -1.3940   -1.0180 Cl  0  0
   -2.8410    5.6850    0.0650 Cl  0  0
    2.6390    3.1250   -0.1920 C   0  0
    1.8470   -1.4330    0.9160 H   0  0
    1.9880    0.9620    1.0570 H   0  0
    2.0150    5.6570    0.0080 H   0  0
    3.0790    2.8680    0.7760 H   0  0
    3.2840    3.8780   -0.6590 H   0  0
    2.6600    2.2620   -0.8640 H   0  0
  1  2  2  0
  1  4  1  0
  1 21  1  0
  2  3  1  0
  2 16  1  0
  3  6  2  0
  3 18  1  0
  4  5  2  0
  4 22  1  0
  5  6  1  0
  5  9  1  0
  6  7  1  0
  7  8  1  0
  8 10  1  0
  8 15  2  0
  9 10  1  0
  9 14  2  0
 10 11  2  0
 11 12  1  0
 11 19  1  0
 12 13  2  0
 12 17  1  0
 13 14  1  0
 13 23  1  0
 14 20  1  0
 20 24  1  0
 20 25  1  0
 20 26  1  0
M  CHG  2  16  -1  17  -1
M  END
> <Name>
BDB50180459

> <Target>
Estrogen Receptor (ER-beta)

> <IC50_in_nM>
18

> <Kd_from_ITC>
false

> <Uniprot_ID>
Q92731

> <source_organism>
Homo sapiens

$$$$
BDB50041611
  SciTegic10041214373D

 48 50  0  0  0  0            999 V2000
    2.3900   -1.4090   -0.1260 C   0  0
    3.6640   -0.9250   -0.1130 C   0  0
    0.5930   -9.2640   -1.4830 C   0  0
    2.1340   -2.8700   -0.2410 C   0  0
    0.7010   -7.7390   -1.4410 C   0  0
    1.5230   -7.1060   -0.5910 C   0  0
    1.2460   -0.4700   -0.0210 C   0  0
    4.8410   -1.8240   -0.2300 C   0  0
   -0.1830   -9.6930   -2.3860 O   0  0
    2.3570   -3.7260    0.8440 C   0  0
    1.6700   -3.4070   -1.4470 C   0  0
    1.6850   -5.6470   -0.4930 C   0  0
    1.2700   -9.9070   -0.6330 O   0  5
    1.4570   -4.7840   -1.5730 C   0  0
    2.1420   -5.1020    0.7150 C   0  0
    4.0430    0.5380    0.0730 C   0  0
    5.1570   -2.4310   -1.4530 C   0  0
    5.6440   -2.0850    0.8890 C   0  0
    0.5600   -0.3380    1.1930 C   0  0
    0.8310    0.2810   -1.1300 C   0  0
    4.5140    1.1920   -1.2210 C   0  0
    6.2540   -3.2880   -1.5540 C   0  0
   -0.5180    0.5430    1.2990 C   0  0
   -0.2460    1.1620   -1.0200 C   0  0
    6.7410   -2.9420    0.7850 C   0  0
    7.0470   -3.5420   -0.4360 C   0  0
   -0.9200    1.2930    0.1940 C   0  0
    0.0640   -7.1980   -2.1340 H   0  0
    2.1240   -7.6970    0.0990 H   0  0
    2.7140   -3.3320    1.7910 H   0  0
    1.4890   -2.7630   -2.3040 H   0  0
    1.1270   -5.1730   -2.5330 H   0  0
    2.3380   -5.7470    1.5690 H   0  0
    3.2090    1.1230    0.4750 H   0  0
    4.8340    0.6300    0.8280 H   0  0
    4.5420   -2.2520   -2.3310 H   0  0
    5.4130   -1.6330    1.8500 H   0  0
    0.8640   -0.9140    2.0630 H   0  0
    1.3470    0.1880   -2.0820 H   0  0
    3.7530    1.1220   -2.0040 H   0  0
    5.4320    0.7280   -1.5940 H   0  0
    4.7250    2.2530   -1.0490 H   0  0
    6.4800   -3.7680   -2.5020 H   0  0
   -1.0450    0.6430    2.2440 H   0  0
   -0.5600    1.7440   -1.8820 H   0  0
    7.3540   -3.1470    1.6590 H   0  0
    7.8980   -4.2130   -0.5130 H   0  0
   -1.7580    1.9790    0.2790 H   0  0
  1  2  2  0
  1  4  1  0
  1  7  1  0
  2  8  1  0
  2 16  1  0
  3  5  1  0
  3  9  2  0
  3 13  1  0
  4 10  2  0
  4 11  1  0
  5  6  2  0
  5 28  1  0
  6 12  1  0
  6 29  1  0
  7 19  2  0
  7 20  1  0
  8 17  2  0
  8 18  1  0
 10 15  1  0
 10 30  1  0
 11 14  2  0
 11 31  1  0
 12 14  1  0
 12 15  2  0
 14 32  1  0
 15 33  1  0
 16 21  1  0
 16 34  1  0
 16 35  1  0
 17 22  1  0
 17 36  1  0
 18 25  2  0
 18 37  1  0
 19 23  1  0
 19 38  1  0
 20 24  2  0
 20 39  1  0
 21 40  1  0
 21 41  1  0
 21 42  1  0
 22 26  2  0
 22 43  1  0
 23 27  2  0
 23 44  1  0
 24 27  1  0
 24 45  1  0
 25 26  1  0
 25 46  1  0
 26 47  1  0
 27 48  1  0
M  CHG  1  13  -1
M  END
> <Name>
BDB50041611

> <Target>
Estrogen Receptor (ER-beta)

> <IC50_in_nM>
56

> <Kd_from_ITC>
false

> <Uniprot_ID>
Q92731

> <source_organism>
Homo sapiens

$$$$
BDB50157493
  SciTegic10041214373D

 37 39  0  0  0  0            999 V2000
    1.2220   -0.7190   -0.2490 C   0  0
    1.2490    0.6690   -0.3270 C   0  0
    0.0630    1.3970   -0.2840 C   0  0
    0.0160   -1.4470   -0.1300 C   0  0
   -2.5310    1.1290   -0.0860 C   0  0
   -3.3440    0.0680   -0.0330 N   0  0
   -2.5260   -1.0040   -0.0430 N   0  0
   -1.1810   -0.6810   -0.1100 C   0  0
   -1.1670    0.7190   -0.1650 C   0  0
   -3.0860    2.4830   -0.1030 C   0  0
   -4.1240    2.7790   -1.0040 C   0  0
   -4.6850    4.0580   -1.0580 C   0  0
   -4.2100    5.0470   -0.2030 C   0  0
   -3.1910    4.7770    0.7060 C   0  0
   -2.6340    3.4970    0.7560 C   0  0
   -4.7260    6.3100   -0.2200 O   0  0
   -1.6520    3.2300    1.6720 O   0  0
   -3.1140   -2.3460    0.0170 C   0  0
   -4.5780   -2.4240   -0.3210 C   0  0
   -5.4980   -3.0290    0.4410 C   0  0
    0.0940   -2.9530   -0.0570 C   0  0
   -0.6480   -3.4690    0.9620 F   0  0
    1.3560   -3.4310    0.1340 F   0  0
   -0.3590   -3.5510   -1.1920 F   0  0
    2.1740   -1.2510   -0.2810 H   0  0
    2.1980    1.1910   -0.4160 H   0  0
    0.0920    2.4820   -0.3380 H   0  0
   -4.5020    2.0050   -1.6710 H   0  0
   -5.4840    4.2580   -1.7660 H   0  0
   -2.8530    5.5720    1.3640 H   0  0
   -5.4310    6.3490   -0.8880 H   0  0
   -1.5070    4.0160    2.2240 H   0  0
   -2.5760   -2.9590   -0.7100 H   0  0
   -2.9190   -2.7170    1.0290 H   0  0
   -4.8920   -1.9500   -1.2490 H   0  0
   -5.2400   -3.5160    1.3760 H   0  0
   -6.5410   -3.0470    0.1380 H   0  0
  1  2  2  0
  1  4  1  0
  1 25  1  0
  2  3  1  0
  2 26  1  0
  3  9  2  0
  3 27  1  0
  4  8  2  0
  4 21  1  0
  5  6  2  0
  5  9  1  0
  5 10  1  0
  6  7  1  0
  7  8  1  0
  7 18  1  0
  8  9  1  0
 10 11  1  0
 10 15  2  0
 11 12  2  0
 11 28  1  0
 12 13  1  0
 12 29  1  0
 13 14  2  0
 13 16  1  0
 14 15  1  0
 14 30  1  0
 15 17  1  0
 16 31  1  0
 17 32  1  0
 18 19  1  0
 18 33  1  0
 18 34  1  0
 19 20  2  0
 19 35  1  0
 20 36  1  0
 20 37  1  0
 21 22  1  0
 21 23  1  0
 21 24  1  0
M  END
> <Name>
BDB50157493

> <Target>
Estrogen Receptor (ER-beta)

> <IC50_in_nM>
106

> <Kd_from_ITC>
false

> <Uniprot_ID>
Q92731

> <source_organism>
Homo sapiens

$$$$
BDB50187954
  SciTegic10041214373D

 38 41  0  0  1  0            999 V2000
    1.8620    0.0070   -5.0100 C   0  0
    2.2360   -0.2630   -3.6860 C   0  0
    1.3610    0.0680   -2.6750 C   0  0
    0.1150    0.6230   -2.8950 C   0  0
   -0.5390    0.7450   -1.5250 C   0  0
   -0.2910    0.8960   -4.2000 C   0  0
    0.5970    0.5850   -5.2310 C   0  0
   -1.2780    1.4740   -6.1880 N   0  0
   -1.4090    1.4260   -4.8620 C   0  0
    1.3130   -0.0810   -1.2560 C   0  0
    0.7380    0.9320   -0.3720 C   0  0  1  0  0  0
    0.0270    1.9710    0.3620 C   0  0
   -0.6030    0.6750    1.1990 C   0  0
   -0.0500   -0.9340    0.7810 C   0  0
    0.8620   -1.2130   -0.5820 C   0  0
   -0.3800   -1.8900    1.4820 O   0  0
    2.0970    0.8020    0.5250 C   0  0
   -2.4520    1.8320   -4.2630 F   0  0
    0.8700   -2.6380   -1.0030 C   0  0
   -0.3840   -3.1170   -1.2050 F   0  0
    1.4650   -3.4390   -0.0830 F   0  0
    1.5460   -2.8400   -2.1640 F   0  0
    3.1550    1.8230    0.0730 C   0  0
   -0.0520    0.9510   -6.3840 N   0  0
    2.5260   -0.2350   -5.8350 H   0  0
    3.1910   -0.7290   -3.4680 H   0  0
   -1.2330   -0.0880   -1.3320 H   0  0
   -1.1670    1.6410   -1.6220 H   0  0
   -0.7700    2.5880   -0.0540 H   0  0
    0.5930    2.6060    1.0500 H   0  0
   -0.3840    0.8100    2.2660 H   0  0
   -1.6920    0.6660    1.0630 H   0  0
    1.8880    1.0140    1.5850 H   0  0
    2.6000   -0.1780    0.5990 H   0  0
    3.5180    1.6060   -0.9360 H   0  0
    4.0150    1.7910    0.7510 H   0  0
    2.7580    2.8420    0.0850 H   0  0
    0.2870    0.8690   -7.3350 H   0  0
  1  2  1  0
  1  7  2  0
  1 25  1  0
  2  3  2  0
  2 26  1  0
  3  4  1  0
  3 10  1  0
  4  5  1  0
  4  6  2  0
  5 11  1  0
  5 27  1  0
  5 28  1  0
  6  7  1  0
  6  9  1  0
  7 24  1  0
  8  9  2  0
  8 24  1  0
  9 18  1  0
 10 11  1  0
 10 15  2  0
 11 12  1  0
 11 17  1  0
 12 13  1  0
 12 29  1  0
 12 30  1  0
 13 14  1  0
 13 31  1  0
 13 32  1  0
 14 15  1  0
 14 16  2  0
 15 19  1  0
 17 23  1  0
 17 33  1  0
 17 34  1  0
 19 20  1  0
 19 21  1  0
 19 22  1  0
 23 35  1  0
 23 36  1  0
 23 37  1  0
 24 38  1  0
M  END
> <Name>
BDB50187954

> <Target>
Estrogen Receptor (ER-beta)

> <IC50_in_nM>
0.30000001

> <Kd_from_ITC>
false

> <Uniprot_ID>
Q92731

> <source_organism>
Homo sapiens

$$$$
BDB50152609
  SciTegic10041214373D

 27 29  0  0  0  0            999 V2000
    2.4790   -0.9750    0.1560 O   0  0
    3.2750    0.1370    0.1500 C   0  0
    1.1820   -0.5590    0.1630 C   0  0
    1.1300    0.8300    0.1620 C   0  0
    2.4810    1.2690    0.1530 C   0  0
    0.0500   -1.3750    0.1710 C   0  0
    4.7160   -0.1030    0.1410 C   0  0
   -1.1970   -0.7380    0.1780 C   0  0
    5.2350   -1.4060    0.1400 C   0  0
    6.6120   -1.6180    0.1320 C   0  0
   -0.1270    1.4580    0.1690 C   0  0
   -1.2720    0.6540    0.1770 C   0  0
    7.4970   -0.5450    0.1250 C   0  0
    5.6220    0.9730    0.1350 C   0  0
    7.0060    0.7560    0.1260 C   0  0
    0.1510   -3.2600    0.1720 Br  0  0
    7.0730   -2.8770    0.1300 F   0  0
    8.8400   -0.7910    0.1170 O   0  0
   -2.4800    1.2950    0.1830 O   0  0
    2.8250    2.2940    0.1500 H   0  0
   -2.1030   -1.3380    0.1840 H   0  0
    4.5800   -2.2730    0.1450 H   0  0
   -0.2160    2.5400    0.1680 H   0  0
    5.2640    2.0000    0.1360 H   0  0
    7.6750    1.6120    0.1210 H   0  0
    9.3200    0.0530    0.1130 H   0  0
   -3.1910    0.6330    0.1880 H   0  0
  1  2  1  0
  1  3  1  0
  2  5  2  0
  2  7  1  0
  3  4  2  0
  3  6  1  0
  4  5  1  0
  4 11  1  0
  5 20  1  0
  6  8  2  0
  6 16  1  0
  7  9  2  0
  7 14  1  0
  8 12  1  0
  8 21  1  0
  9 10  1  0
  9 22  1  0
 10 13  2  0
 10 17  1  0
 11 12  2  0
 11 23  1  0
 12 19  1  0
 13 15  1  0
 13 18  1  0
 14 15  2  0
 14 24  1  0
 15 25  1  0
 18 26  1  0
 19 27  1  0
M  END
> <Name>
BDB50152609

> <Target>
Estrogen Receptor (ER-beta)

> <IC50_in_nM>
0.34999999

> <Kd_from_ITC>
false

> <Uniprot_ID>
Q92731

> <source_organism>
Homo sapiens

$$$$
BDB50168331
  SciTegic10041214373D

 31 33  0  0  0  0            999 V2000
    1.1840   -0.6700   -0.0170 C   0  0
   -0.0880    1.3720   -0.4550 C   0  0
    2.4620   -1.4000    0.0180 C   0  0
   -1.3010    0.7370   -0.0930 C   0  0
    2.6260   -2.6260   -0.6470 C   0  0
   -1.2520   -0.6200    0.3090 C   0  0
    1.1300    0.6730   -0.4130 C   0  0
   -0.0190    3.8510   -1.2250 N   0  0
   -0.0200   -1.2960    0.3400 C   0  0
   -0.0540    2.7430   -0.8810 C   0  0
    3.8320   -3.3210   -0.6200 C   0  0
    3.5680   -0.8910    0.7240 C   0  0
   -2.5630    1.3770   -0.1110 C   0  0
   -2.4350   -1.2860    0.6750 C   0  0
    4.9050   -2.7940    0.0860 C   0  0
    1.6080   -3.1560   -1.3420 F   0  0
   -3.7200    0.6940    0.2560 C   0  0
    4.7840   -1.5830    0.7600 C   0  0
   -3.6670   -0.6340    0.6490 C   0  0
    6.0690   -3.5020    0.0920 O   0  0
   -4.9000    1.3780    0.2120 O   0  0
    2.0480    1.1810   -0.7090 H   0  0
    0.0040   -2.3400    0.6530 H   0  0
    3.9260   -4.2640   -1.1480 H   0  0
    3.4870    0.0500    1.2650 H   0  0
   -2.6640    2.4180   -0.4110 H   0  0
   -2.4050   -2.3300    0.9840 H   0  0
    5.6170   -1.1630    1.3160 H   0  0
   -4.5620   -1.1770    0.9370 H   0  0
    6.7280   -3.0340    0.6330 H   0  0
   -5.6190    0.7840    0.4850 H   0  0
  1  3  1  0
  1  7  1  0
  1  9  2  0
  2  4  1  0
  2  7  2  0
  2 10  1  0
  3  5  2  0
  3 12  1  0
  4  6  2  0
  4 13  1  0
  5 11  1  0
  5 16  1  0
  6  9  1  0
  6 14  1  0
  7 22  1  0
  8 10  3  0
  9 23  1  0
 11 15  2  0
 11 24  1  0
 12 18  2  0
 12 25  1  0
 13 17  2  0
 13 26  1  0
 14 19  2  0
 14 27  1  0
 15 18  1  0
 15 20  1  0
 17 19  1  0
 17 21  1  0
 18 28  1  0
 19 29  1  0
 20 30  1  0
 21 31  1  0
M  END
> <Name>
BDB50168331

> <Target>
Estrogen Receptor (ER-beta)

> <IC50_in_nM>
0.5

> <Kd_from_ITC>
false

> <Uniprot_ID>
Q92731

> <source_organism>
Homo sapiens

$$$$
BDB50152616
  SciTegic10041214373D

 31 33  0  0  0  0            999 V2000
    1.0970   -0.8420    0.0670 C   0  0
    1.1460    0.5480    0.0840 C   0  0
    2.4440    0.9660    0.1130 O   0  0
    2.4540   -1.2740    0.0860 C   0  0
    3.2440   -0.1410    0.1140 C   0  0
   -0.1630   -1.4650    0.0370 C   0  0
    0.0270    1.3930    0.0740 C   0  0
   -1.3050   -0.6510    0.0260 C   0  0
   -1.2150    0.7420    0.0440 C   0  0
    4.6840    0.1020    0.1430 C   0  0
    5.5900   -0.9710    0.1450 C   0  0
    5.2010    1.4090    0.1690 C   0  0
   -0.3300   -3.3540    0.0110 Br  0  0
   -2.5680   -1.1830   -0.0040 O   0  0
    0.2200    2.7460    0.0940 O   0  0
    7.4530    0.5580    0.1980 C   0  0
    6.5800    1.6400    0.1970 C   0  0
    6.9680   -0.7430    0.1730 C   0  0
    8.8060    0.7350    0.2250 O   0  0
   -0.9400    3.5670    0.0810 C   0  0
    2.8060   -2.2960    0.0800 H   0  0
   -2.1450    1.3030    0.0340 H   0  0
    5.2390   -1.9990    0.1260 H   0  0
    4.5310    2.2660    0.1680 H   0  0
   -2.4810   -2.1530   -0.0140 H   0  0
    6.9460    2.6620    0.2160 H   0  0
    7.6600   -1.5810    0.1750 H   0  0
    8.9920    1.6880    0.2410 H   0  0
   -1.5550    3.3960    0.9720 H   0  0
   -1.5210    3.4160   -0.8350 H   0  0
   -0.6120    4.6100    0.0990 H   0  0
  1  2  2  0
  1  4  1  0
  1  6  1  0
  2  3  1  0
  2  7  1  0
  3  5  1  0
  4  5  2  0
  4 21  1  0
  5 10  1  0
  6  8  2  0
  6 13  1  0
  7  9  2  0
  7 15  1  0
  8  9  1  0
  8 14  1  0
  9 22  1  0
 10 11  2  0
 10 12  1  0
 11 18  1  0
 11 23  1  0
 12 17  2  0
 12 24  1  0
 14 25  1  0
 15 20  1  0
 16 17  1  0
 16 18  2  0
 16 19  1  0
 17 26  1  0
 18 27  1  0
 19 28  1  0
 20 29  1  0
 20 30  1  0
 20 31  1  0
M  END
> <Name>
BDB50152616

> <Target>
Estrogen Receptor (ER-beta)

> <IC50_in_nM>
0.5

> <Kd_from_ITC>
false

> <Uniprot_ID>
Q92731

> <source_organism>
Homo sapiens

$$$$
BDB50310370
  SciTegic10041214373D

 62 67  0  0  1  0            999 V2000
   -3.8910   -3.2060    0.1290 C   0  0
   -5.0250   -2.5290   -0.2990 C   0  0
   -5.0140   -1.1480   -0.4340 C   0  0
   -2.7260   -2.4930    0.4310 C   0  0
   -2.6860   -1.0960    0.3080 C   0  0
   -3.8420   -0.4440   -0.1500 C   0  0
   -3.9090    0.9130   -0.3200 O   0  0
   -2.6540    1.5710   -0.5900 C   0  0  1  0  0  0
    1.1740    0.0200   -0.4440 O   0  0
   -1.4740    0.9780    0.1560 C   0  0
   -1.4950   -0.2890    0.6250 C   0  0
   -0.3250   -0.8570    1.3890 C   0  0
    0.9160   -1.0280    0.5050 C   0  0
    1.0200    1.2810    0.0720 C   0  0
   -0.2580    1.8090    0.3520 C   0  0
   -0.3390    3.1280    0.8220 C   0  0
    0.8160    3.8990    0.9930 C   0  0
    2.0610    3.3550    0.6890 C   0  0
    2.1710    2.0530    0.2190 C   0  0
    3.2090    4.0770    0.8430 O   0  0
   -2.4870    1.6800   -2.1010 C   0  0
   -3.1740    2.6920   -2.7920 C   0  0
   -3.0980    2.7940   -4.1850 C   0  0
   -2.3440    1.8750   -4.9130 C   0  0
   -1.6460    0.8750   -4.2360 C   0  0
   -1.7230    0.7690   -2.8460 C   0  0
   -2.2060    1.8550   -6.2740 O   0  0
   -3.1750    2.5920   -7.0190 C   0  0
   -3.0590    2.1770   -8.4840 C   0  0
   -4.0520    2.8360   -9.3140 N   0  0
   -6.1370   -3.2640   -0.5890 O   0  0
   -3.8070    3.9720  -10.0350 C   0  0
   -5.0600    4.3580  -10.7630 C   0  0
   -6.0670    3.2820  -10.3990 C   0  0
   -5.3380    2.3860   -9.4420 C   0  0
   -2.7600    4.6000  -10.0860 O   0  0
   -5.8370    1.4250   -8.8760 O   0  0
   -3.9080   -4.2880    0.2230 H   0  0
   -5.8920   -0.6050   -0.7690 H   0  0
   -1.8560   -3.0600    0.7480 H   0  0
   -2.8100    2.5870   -0.2090 H   0  0
   -0.5540   -1.8020    1.8910 H   0  0
   -0.0870   -0.1740    2.2180 H   0  0
    1.8080   -1.1580    1.1310 H   0  0
    0.8090   -1.9470   -0.0820 H   0  0
   -1.2970    3.5710    1.0840 H   0  0
    0.7220    4.9160    1.3640 H   0  0
    3.1450    1.6410   -0.0280 H   0  0
    2.9840    4.9620    1.1740 H   0  0
   -3.7870    3.4070   -2.2470 H   0  0
   -3.6420    3.5990   -4.6700 H   0  0
   -1.0520    0.1570   -4.7960 H   0  0
   -1.1820   -0.0390   -2.3590 H   0  0
   -4.1890    2.3720   -6.6610 H   0  0
   -2.9820    3.6670   -6.9220 H   0  0
   -3.1920    1.0920   -8.5680 H   0  0
   -2.0540    2.4090   -8.8570 H   0  0
   -6.8090   -2.6720   -0.9650 H   0  0
   -4.8730    4.3840  -11.8410 H   0  0
   -5.3920    5.3450  -10.4280 H   0  0
   -6.3770    2.7080  -11.2770 H   0  0
   -6.9500    3.7070   -9.9130 H   0  0
  1  2  2  0
  1  4  1  0
  1 38  1  0
  2  3  1  0
  2 31  1  0
  3  6  2  0
  3 39  1  0
  4  5  2  0
  4 40  1  0
  5  6  1  0
  5 11  1  0
  6  7  1  0
  7  8  1  0
  8 10  1  0
  8 21  1  0
  8 41  1  0
  9 13  1  0
  9 14  1  0
 10 11  2  0
 10 15  1  0
 11 12  1  0
 12 13  1  0
 12 42  1  0
 12 43  1  0
 13 44  1  0
 13 45  1  0
 14 15  1  0
 14 19  2  0
 15 16  2  0
 16 17  1  0
 16 46  1  0
 17 18  2  0
 17 47  1  0
 18 19  1  0
 18 20  1  0
 19 48  1  0
 20 49  1  0
 21 22  1  0
 21 26  2  0
 22 23  2  0
 22 50  1  0
 23 24  1  0
 23 51  1  0
 24 25  2  0
 24 27  1  0
 25 26  1  0
 25 52  1  0
 26 53  1  0
 27 28  1  0
 28 29  1  0
 28 54  1  0
 28 55  1  0
 29 30  1  0
 29 56  1  0
 29 57  1  0
 30 32  1  0
 30 35  1  0
 31 58  1  0
 32 33  1  0
 32 36  2  0
 33 34  1  0
 33 59  1  0
 33 60  1  0
 34 35  1  0
 34 61  1  0
 34 62  1  0
 35 37  2  0
M  END
> <Name>
BDB50310370

> <Target>
Estrogen Receptor (ER-beta)

> <IC50_in_nM>
0.63999999

> <Kd_from_ITC>
false

> <Uniprot_ID>
Q92731

> <source_organism>
Homo sapiens

$$$$
BDB50190350
  SciTegic10041214373D

 43 46  0  0  1  0            999 V2000
    0.9260    1.5150    0.7580 C   0  0
    0.6100    2.6440   -0.0160 C   0  0
   -0.5930    2.7380   -0.7180 C   0  0
    0.0320    0.4450    0.8450 C   0  0
   -1.1590    0.5640    0.1630 C   0  0
   -1.4710    1.6760   -0.6060 C   0  0
   -2.8160    1.4330   -1.2560 C   0  0
   -2.2900   -0.2900   -0.0760 C   0  0
   -3.5850    0.3590   -0.3040 C   0  0  1  0  0  0
   -4.9180    0.8480   -0.3520 C   0  0
   -4.8500   -0.8140   -1.0340 C   0  0  2  0  0  0
   -3.8610   -0.9820   -2.1950 C   0  0
   -2.3100   -1.0600   -1.2900 C   0  0
   -4.0120   -1.1330   -3.3850 O   0  0
   -5.8630   -1.3100   -0.1470 C   0  0
   -4.4330   -0.9300    0.7680 C   0  0  1  0  0  0
   -1.1850   -1.6140   -2.0960 C   0  0
   -3.7490   -2.2010    1.3670 C   0  0
   -2.9450   -1.9060    2.6390 C   0  0
   -2.2720   -3.1620    3.1720 C   0  0
    1.5350    3.6480   -0.0640 O   0  0
    1.8760    1.4730    1.2830 H   0  0
   -0.8390    3.5970   -1.3300 H   0  0
    0.2710   -0.4420    1.4200 H   0  0
   -3.3280    2.4060   -1.2070 H   0  0
   -2.7270    1.1890   -2.3210 H   0  0
   -5.5000    1.0510    0.5500 H   0  0
   -5.2590    1.4590   -1.1950 H   0  0
   -4.3690   -1.8220   -0.8600 H   0  0
   -6.0910   -2.3780   -0.1200 H   0  0
   -6.7090   -0.6720    0.1110 H   0  0
   -4.7880   -0.3910    1.6670 H   0  0
   -0.2230   -1.4960   -1.5890 H   0  0
   -1.1240   -1.1140   -3.0670 H   0  0
   -1.3430   -2.6840   -2.2650 H   0  0
   -4.5440   -2.9070    1.6400 H   0  0
   -3.1270   -2.7300    0.6380 H   0  0
   -2.1810   -1.1470    2.4600 H   0  0
   -3.6140   -1.5080    3.4120 H   0  0
   -1.5670   -3.5690    2.4390 H   0  0
   -3.0110   -3.9360    3.4040 H   0  0
   -1.7180   -2.9360    4.0880 H   0  0
    1.1920    4.3590   -0.6300 H   0  0
  1  2  2  0
  1  4  1  0
  1 22  1  0
  2  3  1  0
  2 21  1  0
  3  6  2  0
  3 23  1  0
  4  5  2  0
  4 24  1  0
  5  6  1  0
  5  8  1  0
  6  7  1  0
  7  9  1  0
  7 25  1  0
  7 26  1  0
  8  9  1  0
  8 13  2  0
  9 10  1  0
  9 16  1  0
 10 11  1  0
 10 27  1  0
 10 28  1  0
 11 12  1  0
 11 15  1  0
 11 29  1  0
 12 13  1  0
 12 14  2  0
 13 17  1  0
 15 16  1  0
 15 30  1  0
 15 31  1  0
 16 18  1  0
 16 32  1  0
 17 33  1  0
 17 34  1  0
 17 35  1  0
 18 19  1  0
 18 36  1  0
 18 37  1  0
 19 20  1  0
 19 38  1  0
 19 39  1  0
 20 40  1  0
 20 41  1  0
 20 42  1  0
 21 43  1  0
M  END
> <Name>
BDB50190350

> <Target>
Estrogen Receptor (ER-beta)

> <IC50_in_nM>
1

> <Kd_from_ITC>
false

> <Uniprot_ID>
Q92731

> <source_organism>
Homo sapiens

$$$$
BDB50146281
  SciTegic10041214373D

 63 67  0  0  1  0            999 V2000
    1.0480   -0.4750    0.6690 C   0  0  2  0  0  0
    1.3300    1.2850    0.2350 S   0  0
   -1.2460   -0.5410   -0.2720 O   0  0
    0.0700   -1.1010   -0.3520 C   0  0  2  0  0  0
   -0.2600    1.7030   -0.4680 C   0  0
    0.7080   -0.6820    2.1420 C   0  0
   -1.3090    0.7840   -0.6200 C   0  0
   -0.4600    3.0360   -0.8540 C   0  0
   -0.0100   -2.6130   -0.1870 C   0  0
    1.9880   -9.8620    0.6860 N   0  3
    1.3950   -1.6260    2.9270 C   0  0
   -2.5480    1.2050   -1.1130 C   0  0
   -0.9650   -3.2120    0.6440 C   0  0
    0.9330   -3.4310   -0.8290 C   0  0
   -1.6930    3.4370   -1.3630 C   0  0
    0.0030   -5.3960    0.2320 C   0  0
   -2.7390    2.5320   -1.4910 C   0  0
    0.9390   -4.8130   -0.6220 C   0  0
   -0.9580   -4.5930    0.8470 C   0  0
    2.3480   -2.4570    2.4030 O   0  0
   -0.3070    0.0550    2.7790 C   0  0
   -0.0810   -6.7270    0.5340 O   0  0
    0.8350   -8.8950    0.8640 C   0  0
   -1.9200    4.7270   -1.7450 O   0  0
    1.0600   -7.5290    0.2210 C   0  0
    3.2410   -9.4710    1.4360 C   0  0
    2.2680  -10.2290   -0.7530 C   0  0
    1.1330   -1.7850    4.2880 C   0  0
   -0.5890   -0.1160    4.1390 C   0  0
    3.2490  -11.3930   -0.7900 C   0  0
    4.2260  -10.6320    1.4050 C   0  0
    0.1380   -1.0280    4.8960 C   0  0
    4.5290  -11.0770   -0.0230 C   0  0
    2.0350   -0.9210    0.4960 H   0  0
    0.4360   -0.9310   -1.3770 H   0  0
    0.3470    3.7570   -0.7450 H   0  0
    1.6580  -10.7280    1.1350 H   0  0
   -3.3640    0.4930   -1.2100 H   0  0
   -1.7120   -2.6060    1.1560 H   0  0
    1.6800   -2.9960   -1.4920 H   0  0
   -3.6980    2.8580   -1.8820 H   0  0
    1.6840   -5.4030   -1.1460 H   0  0
   -1.7000   -5.0410    1.5040 H   0  0
    1.9550   -2.8880    1.6250 H   0  0
   -0.8950    0.7880    2.2330 H   0  0
   -0.0550   -9.3790    0.4440 H   0  0
    0.6610   -8.7980    1.9420 H   0  0
   -1.1180    5.2490   -1.5780 H   0  0
    1.1440   -7.6320   -0.8660 H   0  0
    1.9660   -7.0660    0.6280 H   0  0
    2.9510   -9.2360    2.4650 H   0  0
    3.6580   -8.5800    0.9560 H   0  0
    1.3150  -10.5090   -1.2140 H   0  0
    2.6770   -9.3450   -1.2530 H   0  0
    1.6960   -2.5110    4.8690 H   0  0
   -1.3730    0.4750    4.6060 H   0  0
    3.4940  -11.6330   -1.8310 H   0  0
    2.7770  -12.2860   -0.3610 H   0  0
    5.1560  -10.3380    1.9030 H   0  0
    3.8150  -11.4780    1.9700 H   0  0
   -0.0740   -1.1510    5.9550 H   0  0
    5.1780  -11.9590   -0.0060 H   0  0
    5.0790  -10.2840   -0.5430 H   0  0
  1  2  1  0
  1  4  1  0
  1  6  1  0
  1 34  1  0
  2  5  1  0
  3  4  1  0
  3  7  1  0
  4  9  1  0
  4 35  1  0
  5  7  2  0
  5  8  1  0
  6 11  2  0
  6 21  1  0
  7 12  1  0
  8 15  2  0
  8 36  1  0
  9 13  2  0
  9 14  1  0
 10 23  1  0
 10 26  1  0
 10 27  1  0
 10 37  1  0
 11 20  1  0
 11 28  1  0
 12 17  2  0
 12 38  1  0
 13 19  1  0
 13 39  1  0
 14 18  2  0
 14 40  1  0
 15 17  1  0
 15 24  1  0
 16 18  1  0
 16 19  2  0
 16 22  1  0
 17 41  1  0
 18 42  1  0
 19 43  1  0
 20 44  1  0
 21 29  2  0
 21 45  1  0
 22 25  1  0
 23 25  1  0
 23 46  1  0
 23 47  1  0
 24 48  1  0
 25 49  1  0
 25 50  1  0
 26 31  1  0
 26 51  1  0
 26 52  1  0
 27 30  1  0
 27 53  1  0
 27 54  1  0
 28 32  2  0
 28 55  1  0
 29 32  1  0
 29 56  1  0
 30 33  1  0
 30 57  1  0
 30 58  1  0
 31 33  1  0
 31 59  1  0
 31 60  1  0
 32 61  1  0
 33 62  1  0
 33 63  1  0
M  CHG  1  10   1
M  END
> <Name>
BDB50146281

> <Target>
Estrogen Receptor (ER-beta)

> <IC50_in_nM>
1.1

> <Kd_from_ITC>
false

> <Uniprot_ID>
Q92731

> <source_organism>
Homo sapiens

$$$$
BDB50168367
  SciTegic10041214373D

 30 32  0  0  0  0            999 V2000
    1.2600   -0.7110    0.2890 C   0  0
    1.1500    0.6640    0.6010 C   0  0
    0.0670   -1.3680   -0.1100 C   0  0
    2.4550   -1.4800    0.3410 C   0  0
   -1.2330    0.7110    0.1340 C   0  0
   -0.0590    1.3580    0.5260 C   0  0
   -1.1460   -0.6550   -0.1800 C   0  0
   -2.5130    1.4350    0.0490 C   0  0
    2.4440   -2.8410    0.0060 C   0  0
    0.0900   -2.7330   -0.4390 C   0  0
    1.2710   -3.4680   -0.3820 C   0  0
    2.2240    1.3680    0.9900 F   0  0
   -3.6660    0.9500    0.6920 C   0  0
   -2.6200    2.6340   -0.6800 C   0  0
    3.9810   -0.7980    0.8120 Cl  0  0
   -4.9540    2.8190   -0.1180 C   0  0
   -3.8330    3.3250   -0.7650 C   0  0
   -4.8790    1.6380    0.6090 C   0  0
    3.5760   -3.6100    0.0440 O   0  0
   -6.1580    3.4590   -0.1730 O   0  0
   -0.0650    2.4120    0.7920 H   0  0
   -2.0490   -1.1760   -0.5010 H   0  0
   -0.8220   -3.2430   -0.7460 H   0  0
    1.2740   -4.5230   -0.6400 H   0  0
   -3.6260    0.0330    1.2760 H   0  0
   -1.7530    3.0370   -1.2020 H   0  0
   -3.8790    4.2460   -1.3390 H   0  0
   -5.7620    1.2540    1.1130 H   0  0
    4.3080   -3.0340    0.3320 H   0  0
   -6.0560    4.2680   -0.7000 H   0  0
  1  2  1  0
  1  3  2  0
  1  4  1  0
  2  6  2  0
  2 12  1  0
  3  7  1  0
  3 10  1  0
  4  9  2  0
  4 15  1  0
  5  6  1  0
  5  7  2  0
  5  8  1  0
  6 21  1  0
  7 22  1  0
  8 13  2  0
  8 14  1  0
  9 11  1  0
  9 19  1  0
 10 11  2  0
 10 23  1  0
 11 24  1  0
 13 18  1  0
 13 25  1  0
 14 17  2  0
 14 26  1  0
 16 17  1  0
 16 18  2  0
 16 20  1  0
 17 27  1  0
 18 28  1  0
 19 29  1  0
 20 30  1  0
M  END
> <Name>
BDB50168367

> <Target>
Estrogen Receptor (ER-beta)

> <IC50_in_nM>
1.1

> <Kd_from_ITC>
false

> <Uniprot_ID>
Q92731

> <source_organism>
Homo sapiens

$$$$
BDB50175419
  SciTegic10041214373D

 37 40  0  0  0  0            999 V2000
    7.6210   -0.3940   -0.1110 C   0  0
    6.8440   -1.0420   -1.0690 C   0  0
    5.4550   -0.8990   -1.0580 C   0  0
    4.8300   -0.1040   -0.0860 C   0  0
    5.6210    0.5410    0.8740 C   0  0
    7.0100    0.3970    0.8600 C   0  0
    3.0350    2.5230   -0.0350 C   0  0
    2.7300    3.3770    1.0320 C   0  0
    3.2010    4.6920    1.0350 C   0  0
    3.9710    5.1520   -0.0280 C   0  0
    4.2780    4.3180   -1.1000 C   0  0
    3.8070    3.0030   -1.1030 C   0  0
    3.3740    0.0420   -0.0720 C   0  0
    2.5410    1.1550   -0.0340 C   0  0
    2.5470   -1.0620   -0.0580 N   0  0
    1.2240   -0.6960   -0.0190 C   0  0
    1.1860    0.6970   -0.0010 C   0  0
   -0.0720    1.3340    0.0340 C   0  0
   -1.2370    0.5580    0.0560 C   0  0
   -1.1640   -0.8330    0.0410 C   0  0
    0.0690   -1.4880    0.0020 C   0  0
    4.4110    6.4430    0.0180 O   0  0
    8.7020   -0.5050   -0.1210 H   0  0
    7.3190   -1.6560   -1.8290 H   0  0
    4.8680   -1.4000   -1.8230 H   0  0
    5.1620    1.1560    1.6430 H   0  0
    7.6140    0.9030    1.6090 H   0  0
    2.1340    3.0240    1.8700 H   0  0
    2.9690    5.3550    1.8640 H   0  0
    4.8770    4.6690   -1.9350 H   0  0
    4.0460    2.3550   -1.9440 H   0  0
    2.8730   -2.0180   -0.0700 H   0  0
   -0.1430    2.4180    0.0410 H   0  0
   -2.2070    1.0480    0.0840 H   0  0
   -2.0800   -1.4190    0.0580 H   0  0
    0.1220   -2.5720   -0.0110 H   0  0
    4.9130    6.6320   -0.7910 H   0  0
  1  2  1  0
  1  6  2  0
  1 23  1  0
  2  3  2  0
  2 24  1  0
  3  4  1  0
  3 25  1  0
  4  5  2  0
  4 13  1  0
  5  6  1  0
  5 26  1  0
  6 27  1  0
  7  8  1  0
  7 12  2  0
  7 14  1  0
  8  9  2  0
  8 28  1  0
  9 10  1  0
  9 29  1  0
 10 11  2  0
 10 22  1  0
 11 12  1  0
 11 30  1  0
 12 31  1  0
 13 14  2  0
 13 15  1  0
 14 17  1  0
 15 16  1  0
 15 32  1  0
 16 17  1  0
 16 21  2  0
 17 18  2  0
 18 19  1  0
 18 33  1  0
 19 20  2  0
 19 34  1  0
 20 21  1  0
 20 35  1  0
 21 36  1  0
 22 37  1  0
M  END
> <Name>
BDB50175419

> <Target>
Estrogen Receptor (ER-beta)

> <IC50_in_nM>
1.12

> <Kd_from_ITC>
false

> <Uniprot_ID>
Q92731

> <source_organism>
Homo sapiens

$$$$
BDB50180469
  SciTegic10041214373D

 37 39  0  0  0  0            999 V2000
    3.5290   -0.4810   -1.1150 C   0  0
    3.5290    0.7880   -0.5400 C   0  0
    2.3790    1.2990    0.0670 C   0  0
    2.3800   -1.2780   -1.0780 C   0  0
    1.2150   -0.8340   -0.4450 C   0  0
    1.2330    0.4800    0.0570 C   0  0
    0.0330    1.0340    0.5350 O   0  0
   -1.0660    0.6550   -0.2140 C   0  0
   -0.0490   -1.5950   -0.3270 C   0  0
   -1.2390   -0.8260   -0.2610 C   0  0
   -2.5140   -1.4290   -0.2320 C   0  0
   -2.6290   -2.8300   -0.2720 C   0  0
   -1.4490   -3.5920   -0.1990 C   0  0
   -0.1600   -3.0040   -0.2250 C   0  0
   -1.8350    1.4680   -0.7010 O   0  0
    4.6990    1.4890   -0.6390 O   0  0
    2.3380    2.6830    0.6480 C   0  0
   -4.1100   -0.3840   -0.0550 Br  0  0
   -3.9720   -3.5150   -0.3480 C   0  0
   -1.5380   -4.9670   -0.1530 O   0  0
   -1.7530   -5.4150    1.1900 C   0  0
    1.0440   -3.9130   -0.1490 C   0  0
    4.4270   -0.8490   -1.6060 H   0  0
    2.4220   -2.2380   -1.5820 H   0  0
    4.5710    2.3860   -0.2940 H   0  0
    2.3440    3.4260   -0.1550 H   0  0
    3.2020    2.8490    1.3010 H   0  0
    1.4510    2.8530    1.2640 H   0  0
   -4.6080   -3.0460   -1.1070 H   0  0
   -4.4720   -3.4810    0.6250 H   0  0
   -3.8860   -4.5630   -0.6520 H   0  0
   -2.7820   -5.2240    1.5080 H   0  0
   -1.0520   -4.9520    1.8940 H   0  0
   -1.5880   -6.4960    1.2100 H   0  0
    1.3890   -4.1670   -1.1560 H   0  0
    0.8290   -4.8490    0.3730 H   0  0
    1.8530   -3.4530    0.4250 H   0  0
  1  2  2  0
  1  4  1  0
  1 23  1  0
  2  3  1  0
  2 16  1  0
  3  6  2  0
  3 17  1  0
  4  5  2  0
  4 24  1  0
  5  6  1  0
  5  9  1  0
  6  7  1  0
  7  8  1  0
  8 10  1  0
  8 15  2  0
  9 10  1  0
  9 14  2  0
 10 11  2  0
 11 12  1  0
 11 18  1  0
 12 13  2  0
 12 19  1  0
 13 14  1  0
 13 20  1  0
 14 22  1  0
 16 25  1  0
 17 26  1  0
 17 27  1  0
 17 28  1  0
 19 29  1  0
 19 30  1  0
 19 31  1  0
 20 21  1  0
 21 32  1  0
 21 33  1  0
 21 34  1  0
 22 35  1  0
 22 36  1  0
 22 37  1  0
M  END
> <Name>
BDB50180469

> <Target>
Estrogen Receptor (ER-beta)

> <IC50_in_nM>
1.15

> <Kd_from_ITC>
false

> <Uniprot_ID>
Q92731

> <source_organism>
Homo sapiens

$$$$
BDB50161713
  SciTegic10041214373D

 67 72  0  0  0  0            999 V2000
    2.7500    1.2550   -0.0280 C   0  0
    3.7350    0.2880   -0.2010 C   0  0
    3.1180   -1.1230   -0.9470 S   0  0
    1.5200   -0.5080   -1.0080 C   0  0
    1.4490    0.7790   -0.4720 C   0  0
   15.7000    4.0440   -2.7910 N   0  3
    2.9600    2.5780    0.5750 C   0  0
   11.2560    7.3900   -1.4770 C   0  0
    9.9690    6.8790   -1.5860 N   0  0
    7.7570    5.4140   -0.5760 N   0  0
    5.1550    0.2940    0.1820 C   0  0
    0.3830   -1.1670   -1.5170 C   0  0
   14.5620    4.9030   -2.4560 C   0  0
    0.1750    1.4110   -0.4540 C   0  0
   16.2820    4.2530   -3.8640 O   0  5
   12.3890    6.5160   -1.8330 C   0  0
    6.5440    4.7950   -0.3350 C   0  0
    4.1610    3.3750    0.2210 C   0  0
   16.0120    3.1580   -1.9820 O   0  0
    8.8430    7.6090   -1.0050 C   0  0
    9.5750    5.6320   -2.2530 C   0  0
    8.0720    6.7320   -0.0030 C   0  0
    8.8310    4.7040   -1.2870 C   0  0
   11.5260    8.5170   -1.0700 O   0  0
    2.1570    3.0590    1.3710 O   0  0
   13.7410    4.5650   -1.3720 C   0  0
   14.3130    6.0550   -3.2190 C   0  0
    5.8860    4.0540   -1.3280 C   0  0
    5.9350    4.8580    0.9280 C   0  0
   12.6540    5.3800   -1.0560 C   0  0
   13.2230    6.8680   -2.8990 C   0  0
    4.7010    3.3590   -1.0660 C   0  0
    4.7590    4.1570    1.2100 C   0  0
    5.5240    0.4390    1.5270 C   0  0
    6.1640    0.1800   -0.7900 C   0  0
   -0.8440   -0.5110   -1.4780 C   0  0
   -0.9600    0.7640   -0.9530 C   0  0
    7.8560    0.3720    0.9120 C   0  0
    7.5130    0.2230   -0.4280 C   0  0
    6.8730    0.4780    1.8900 C   0  0
   -1.9290   -1.1740   -1.9770 O   0  0
    9.1610    0.4150    1.3110 O   0  0
    0.4560   -2.1690   -1.9310 H   0  0
    0.0720    2.4120   -0.0390 H   0  0
    8.1860    7.9020   -1.8330 H   0  0
    9.1800    8.5250   -0.5090 H   0  0
   10.4320    5.1180   -2.6950 H   0  0
    8.9120    5.9130   -3.0810 H   0  0
    8.6790    6.5830    0.8990 H   0  0
    7.1640    7.2720    0.2900 H   0  0
    9.5340    4.3230   -0.5360 H   0  0
    8.4720    3.8320   -1.8440 H   0  0
   13.9330    3.6820   -0.7650 H   0  0
   14.9540    6.3350   -4.0530 H   0  0
    6.2890    4.0190   -2.3370 H   0  0
    6.4060    5.4180    1.7330 H   0  0
   12.0260    5.1370   -0.2030 H   0  0
   13.0280    7.7710   -3.4740 H   0  0
    4.2300    2.8010   -1.8710 H   0  0
    4.3380    4.2010    2.2120 H   0  0
    4.7670    0.5200    2.3040 H   0  0
    5.9060    0.0690   -1.8410 H   0  0
   -1.9160    1.2780   -0.9180 H   0  0
    8.2730    0.1400   -1.1990 H   0  0
    7.1540    0.5880    2.9340 H   0  0
   -2.7110   -0.6060   -1.8860 H   0  0
    9.7310    0.3660    0.5260 H   0  0
  1  2  2  0
  1  5  1  0
  1  7  1  0
  2  3  1  0
  2 11  1  0
  3  4  1  0
  4  5  2  0
  4 12  1  0
  5 14  1  0
  6 13  1  0
  6 15  1  0
  6 19  2  0
  7 18  1  0
  7 25  2  0
  8  9  1  0
  8 16  1  0
  8 24  2  0
  9 20  1  0
  9 21  1  0
 10 17  1  0
 10 22  1  0
 10 23  1  0
 11 34  2  0
 11 35  1  0
 12 36  2  0
 12 43  1  0
 13 26  1  0
 13 27  2  0
 14 37  2  0
 14 44  1  0
 16 30  1  0
 16 31  2  0
 17 28  1  0
 17 29  2  0
 18 32  1  0
 18 33  2  0
 20 22  1  0
 20 45  1  0
 20 46  1  0
 21 23  1  0
 21 47  1  0
 21 48  1  0
 22 49  1  0
 22 50  1  0
 23 51  1  0
 23 52  1  0
 26 30  2  0
 26 53  1  0
 27 31  1  0
 27 54  1  0
 28 32  2  0
 28 55  1  0
 29 33  1  0
 29 56  1  0
 30 57  1  0
 31 58  1  0
 32 59  1  0
 33 60  1  0
 34 40  1  0
 34 61  1  0
 35 39  2  0
 35 62  1  0
 36 37  1  0
 36 41  1  0
 37 63  1  0
 38 39  1  0
 38 40  2  0
 38 42  1  0
 39 64  1  0
 40 65  1  0
 41 66  1  0
 42 67  1  0
M  CHG  2   6   1  15  -1
M  END
> <Name>
BDB50161713

> <Target>
Estrogen Receptor (ER-beta)

> <IC50_in_nM>
1.27

> <Kd_from_ITC>
false

> <Uniprot_ID>
Q92731

> <source_organism>
Homo sapiens

$$$$
BDB50166755
  SciTegic10041214373D

 32 34  0  0  0  0            999 V2000
    1.8380   -3.1790   -0.6000 C   0  0
    2.0640   -1.9840   -1.1830 C   0  0
    0.8310   -2.9440    0.4780 C   0  0
    1.2320   -0.9490   -0.5740 C   0  0
    0.4830   -1.5310    0.4400 C   0  0
    2.4370   -4.4870   -0.8770 C   0  0
   -0.4120   -0.8340    1.2310 C   0  0
    1.0910    0.4090   -0.8300 C   0  0
    0.3730   -3.7600    1.2530 O   0  0
    3.1540   -1.6000   -2.4490 S   0  0
    2.9860   -5.2440    0.1690 C   0  0
    2.4580   -5.0180   -2.1760 C   0  0
    0.1910    1.1360   -0.0450 C   0  0
   -0.5540    0.5290    0.9760 C   0  0
    3.5790   -6.9940   -1.3780 C   0  0
    3.0310   -6.2680   -2.4300 C   0  0
    3.5590   -6.4930   -0.0820 C   0  0
    0.0040    2.4750   -0.2450 O   0  0
    4.1490   -8.2180   -1.5790 O   0  0
    4.7250   -1.6790   -1.5570 C   0  0
   -0.9780   -1.3270    2.0140 H   0  0
    1.6630    0.8870   -1.6180 H   0  0
    2.9710   -4.8700    1.1910 H   0  0
    2.0200   -4.4660   -3.0060 H   0  0
   -1.2440    1.1260    1.5670 H   0  0
    3.0350   -6.6520   -3.4450 H   0  0
    3.9830   -7.0730    0.7320 H   0  0
    0.5670    2.7650   -0.9810 H   0  0
    4.0820   -8.4410   -2.5210 H   0  0
    4.9210   -2.6920   -1.1990 H   0  0
    4.7200   -0.9900   -0.7080 H   0  0
    5.5350   -1.3890   -2.2330 H   0  0
  1  2  2  0
  1  3  1  0
  1  6  1  0
  2  4  1  0
  2 10  1  0
  3  5  1  0
  3  9  2  0
  4  5  2  0
  4  8  1  0
  5  7  1  0
  6 11  2  0
  6 12  1  0
  7 14  2  0
  7 21  1  0
  8 13  2  0
  8 22  1  0
 10 20  1  0
 11 17  1  0
 11 23  1  0
 12 16  2  0
 12 24  1  0
 13 14  1  0
 13 18  1  0
 14 25  1  0
 15 16  1  0
 15 17  2  0
 15 19  1  0
 16 26  1  0
 17 27  1  0
 18 28  1  0
 19 29  1  0
 20 30  1  0
 20 31  1  0
 20 32  1  0
M  END
> <Name>
BDB50166755

> <Target>
Estrogen Receptor (ER-beta)

> <IC50_in_nM>
1.3

> <Kd_from_ITC>
false

> <Uniprot_ID>
Q92731

> <source_organism>
Homo sapiens

$$$$
BDB50154137
  SciTegic10041214373D

 32 35  0  0  0  0            999 V2000
    2.5180   -5.1200   -0.4110 C   0  0
    3.8510   -5.2680   -0.0290 C   0  0
    4.5880   -4.2150    0.5130 C   0  0
    1.8610   -3.8920   -0.2560 C   0  0
    2.5740   -2.8120    0.2980 C   0  0
    3.8990   -3.0110    0.6500 C   0  0
    4.4110   -1.8540    1.1400 O   0  0
    3.4410   -0.8710    1.1200 N   0  0
    2.3280   -1.4450    0.6300 C   0  0
    1.0920   -0.6780    0.4900 C   0  0
    1.1360    0.6540    0.0510 C   0  0
   -1.3230   -0.5050    0.6660 C   0  0
   -0.1460   -1.2480    0.8040 C   0  0
   -1.2850    0.8240    0.2200 C   0  0
   -0.0380    1.4140   -0.0910 C   0  0
    0.0000    2.7470   -0.5330 C   0  0
   -1.1740    3.4910   -0.6690 C   0  0
   -2.3940    2.9010   -0.3610 C   0  0
   -2.4590    1.5820    0.0790 C   0  0
    4.4190   -6.4980   -0.2120 O   0  0
   -3.5660    3.5910   -0.4770 O   0  0
    1.9850   -5.9670   -0.8360 H   0  0
    5.6240   -4.3040    0.8110 H   0  0
    0.8260   -3.7880   -0.5680 H   0  0
    2.0980    1.1070   -0.1870 H   0  0
   -2.2710   -0.9740    0.9190 H   0  0
   -0.2160   -2.2670    1.1760 H   0  0
    0.9510    3.2190   -0.7760 H   0  0
   -1.1130    4.5200   -1.0120 H   0  0
   -3.4300    1.1530    0.3120 H   0  0
    5.3420   -6.4670    0.0920 H   0  0
   -3.3660    4.4940   -0.7770 H   0  0
  1  2  2  0
  1  4  1  0
  1 22  1  0
  2  3  1  0
  2 20  1  0
  3  6  2  0
  3 23  1  0
  4  5  2  0
  4 24  1  0
  5  6  1  0
  5  9  1  0
  6  7  1  0
  7  8  1  0
  8  9  2  0
  9 10  1  0
 10 11  2  0
 10 13  1  0
 11 15  1  0
 11 25  1  0
 12 13  2  0
 12 14  1  0
 12 26  1  0
 13 27  1  0
 14 15  1  0
 14 19  2  0
 15 16  2  0
 16 17  1  0
 16 28  1  0
 17 18  2  0
 17 29  1  0
 18 19  1  0
 18 21  1  0
 19 30  1  0
 20 31  1  0
 21 32  1  0
M  END
> <Name>
BDB50154137

> <Target>
Estrogen Receptor (ER-beta)

> <IC50_in_nM>
1.4

> <Kd_from_ITC>
false

> <Uniprot_ID>
Q92731

> <source_organism>
Homo sapiens

$$$$
BDB50154059
  SciTegic10041214373D

 26 28  0  0  0  0            999 V2000
    1.5280   -2.8010   -0.0040 C   0  0
    0.2080   -2.7320    0.0530 N   0  0
    2.1550   -1.5810   -0.0030 O   0  0
    1.1360   -0.6750    0.0600 C   0  0
   -0.0530   -1.3850    0.0940 C   0  0
    2.3720   -3.9890   -0.0670 C   0  0
    3.7700   -3.9320   -0.1250 C   0  0
    1.2180    0.7130    0.0880 C   0  0
   -1.2690   -0.6890    0.1610 C   0  0
    0.0030    1.4010    0.1550 C   0  0
    1.7650   -5.2580   -0.0690 C   0  0
    4.5430   -5.0910   -0.1840 C   0  0
   -1.2100    0.7090    0.1900 C   0  0
    3.9180   -6.3310   -0.1840 C   0  0
    4.4140   -2.7560   -0.1270 F   0  0
    2.8530    1.6480    0.0400 Br  0  0
    2.5320   -6.4260   -0.1270 C   0  0
   -2.3530    1.4550    0.2550 O   0  0
    4.7070   -7.4410   -0.2430 O   0  0
   -2.2040   -1.2350    0.1890 H   0  0
   -0.0110    2.4890    0.1800 H   0  0
    0.6790   -5.3440   -0.0240 H   0  0
    5.6250   -5.0180   -0.2280 H   0  0
    2.0320   -7.3900   -0.1270 H   0  0
   -3.1210    0.8590    0.2740 H   0  0
    4.1430   -8.2320   -0.2360 H   0  0
  1  2  2  0
  1  3  1  0
  1  6  1  0
  2  5  1  0
  3  4  1  0
  4  5  2  0
  4  8  1  0
  5  9  1  0
  6  7  2  0
  6 11  1  0
  7 12  1  0
  7 15  1  0
  8 10  2  0
  8 16  1  0
  9 13  2  0
  9 20  1  0
 10 13  1  0
 10 21  1  0
 11 17  2  0
 11 22  1  0
 12 14  2  0
 12 23  1  0
 13 18  1  0
 14 17  1  0
 14 19  1  0
 17 24  1  0
 18 25  1  0
 19 26  1  0
M  END
> <Name>
BDB50154059

> <Target>
Estrogen Receptor (ER-beta)

> <IC50_in_nM>
1.4

> <Kd_from_ITC>
false

> <Uniprot_ID>
Q92731

> <source_organism>
Homo sapiens

$$$$
BDB50154134
  SciTegic10041214373D

 33 35  0  0  0  0            999 V2000
    4.8490    2.7160   -0.2670 N   0  0
    4.2360    1.5670   -0.0440 C   0  0
    2.9350    1.6910    0.3750 O   0  0
    3.8970    3.6610    0.0230 C   0  0
    2.7200    3.0410    0.4140 C   0  0
    1.5470    3.7100    0.7710 C   0  0
    3.9520    5.0590   -0.0180 C   0  0
    4.7520    0.2080   -0.1830 C   0  0
    1.6310    5.1140    0.7500 C   0  0
    2.8050    5.7640    0.3560 C   0  0
    0.3590    2.9790    1.2130 C   0  0
    6.0800    0.0110   -0.5940 C   0  0
    3.9580   -0.9190    0.0840 C   0  0
   -0.9020    3.1560    0.7880 C   0  0
    5.7960   -2.3780   -0.4650 C   0  0
    4.4770   -2.2110   -0.0560 C   0  0
    6.6000   -1.2780   -0.7350 C   0  0
    2.8770    7.1290    0.3270 O   0  0
    6.3430   -3.6190   -0.6150 O   0  0
   -1.3990    4.0880   -0.2690 C   0  0
    4.8570    5.5740   -0.3190 H   0  0
    0.7640    5.6960    1.0540 H   0  0
    0.5530    2.2040    1.9540 H   0  0
    6.7210    0.8650   -0.8090 H   0  0
    2.9240   -0.8060    0.4040 H   0  0
   -1.6700    2.5250    1.2340 H   0  0
    3.8400   -3.0650    0.1570 H   0  0
    7.6290   -1.4200   -1.0540 H   0  0
    2.0230    7.4980    0.6070 H   0  0
    5.6710   -4.2850   -0.3970 H   0  0
   -0.5970    4.5450   -0.8540 H   0  0
   -1.9980    4.8830    0.1850 H   0  0
   -2.0370    3.5390   -0.9690 H   0  0
  1  2  2  0
  1  4  1  0
  2  3  1  0
  2  8  1  0
  3  5  1  0
  4  5  2  0
  4  7  1  0
  5  6  1  0
  6  9  2  0
  6 11  1  0
  7 10  2  0
  7 21  1  0
  8 12  2  0
  8 13  1  0
  9 10  1  0
  9 22  1  0
 10 18  1  0
 11 14  2  0
 11 23  1  0
 12 17  1  0
 12 24  1  0
 13 16  2  0
 13 25  1  0
 14 20  1  0
 14 26  1  0
 15 16  1  0
 15 17  2  0
 15 19  1  0
 16 27  1  0
 17 28  1  0
 18 29  1  0
 19 30  1  0
 20 31  1  0
 20 32  1  0
 20 33  1  0
M  END
> <Name>
BDB50154134

> <Target>
Estrogen Receptor (ER-beta)

> <IC50_in_nM>
1.42

> <Kd_from_ITC>
false

> <Uniprot_ID>
Q92731

> <source_organism>
Homo sapiens

$$$$
BDB50130177
  SciTegic10041214373D

 29 32  0  0  0  0            999 V2000
    1.2110   -0.7800    0.0430 C   0  0
    1.1280    0.5860   -0.0230 C   0  0
   -0.0080   -1.5300    0.1560 C   0  0
   -1.2450   -0.7020    0.1890 C   0  0
    0.0570    1.3710    0.0020 O   0  0
   -1.1550    0.7050    0.1110 C   0  0
    2.3440    1.1650   -0.1270 O   0  0
    2.5860   -1.0970   -0.0250 C   0  0
    3.2430    0.1320   -0.1290 C   0  0
   -2.4950   -1.3150    0.2980 C   0  0
   -2.3130    1.4790    0.1420 C   0  0
   -3.6540   -0.5440    0.3290 C   0  0
    4.6260    0.2680   -0.2200 C   0  0
    3.3570   -2.2730   -0.0110 C   0  0
   -0.0880   -2.7530    0.2250 O   0  0
   -3.5510    0.8460    0.2500 C   0  0
    5.3630   -0.9160   -0.2040 C   0  0
   -2.6350   -2.6760    0.3770 O   0  0
    4.7530   -2.1680   -0.1020 C   0  0
   -4.6630    1.6390    0.2770 O   0  0
    6.7220   -0.8010   -0.2930 O   0  0
   -2.2570    2.5620    0.0820 H   0  0
   -4.6170   -1.0370    0.4130 H   0  0
    5.0980    1.2390   -0.3000 H   0  0
    2.8820   -3.2470    0.0690 H   0  0
   -1.7330   -3.0780    0.3420 H   0  0
    5.3460   -3.0780   -0.0910 H   0  0
   -5.4520    1.0760    0.3550 H   0  0
    7.1230   -1.6860   -0.2720 H   0  0
  1  2  2  0
  1  3  1  0
  1  8  1  0
  2  5  1  0
  2  7  1  0
  3  4  1  0
  3 15  2  0
  4  6  2  0
  4 10  1  0
  5  6  1  0
  6 11  1  0
  7  9  1  0
  8  9  2  0
  8 14  1  0
  9 13  1  0
 10 12  2  0
 10 18  1  0
 11 16  2  0
 11 22  1  0
 12 16  1  0
 12 23  1  0
 13 17  2  0
 13 24  1  0
 14 19  2  0
 14 25  1  0
 16 20  1  0
 17 19  1  0
 17 21  1  0
 18 26  1  0
 19 27  1  0
 20 28  1  0
 21 29  1  0
M  END
> <Name>
BDB50130177

> <Target>
Estrogen Receptor (ER-beta)

> <IC50_in_nM>
1.7

> <Kd_from_ITC>
false

> <Uniprot_ID>
Q92731

> <source_organism>
Homo sapiens

$$$$
BDB50133069
  SciTegic10041214373D

 44 46  0  0  1  0            999 V2000
    1.2940   -0.7550    0.2150 C   0  0
    1.2190    0.6670    0.1420 C   0  0
    0.1030   -1.5530    0.1360 C   0  0
   -1.1320   -0.8800    0.0080 C   0  0
   -0.0330    1.2780   -0.0150 C   0  0
    2.6170   -1.4120    0.3520 C   0  0
   -1.1940    0.5170   -0.0780 C   0  0
   -3.5120   -1.1210   -0.4300 N   0  0
    2.4130    1.5290    0.2090 C   0  0
   -2.4220   -1.5960    0.0880 C   0  0
    0.2520   -2.9380    0.0900 N   0  0
   -4.5570   -2.0170   -0.1810 O   0  0
    3.2590   -1.9700   -0.7650 C   0  0
    3.2500   -1.4990    1.6020 C   0  0
    2.7460    2.1980    1.3980 C   0  0
    3.2360    1.7090   -0.9140 C   0  0
   -0.5500   -3.8560   -0.6970 C   0  0
    0.3340   -4.9810   -1.2140 C   0  0
    4.4950   -2.1200    1.7290 C   0  0
    3.8780    3.0130    1.4650 C   0  0
    4.3680    2.5250   -0.8460 C   0  0
    4.5030   -2.5920   -0.6360 C   0  0
    5.1220   -2.6650    0.6100 C   0  0
    4.6890    3.1740    0.3440 C   0  0
   -0.1080    2.3620   -0.0790 H   0  0
   -2.1520    1.0250   -0.1680 H   0  0
   -2.4360   -2.5540    0.6320 H   0  0
    1.0210   -3.3330    0.6230 H   0  0
   -5.3110   -1.5740   -0.6090 H   0  0
    2.7870   -1.9230   -1.7440 H   0  0
    2.7760   -1.0770    2.4860 H   0  0
    2.1260    2.0800    2.2840 H   0  0
    3.0000    1.2090   -1.8510 H   0  0
   -1.0020   -3.3510   -1.5570 H   0  0
   -1.3450   -4.2870   -0.0810 H   0  0
    0.7910   -5.5350   -0.3880 H   0  0
    1.1420   -4.5880   -1.8410 H   0  0
   -0.2540   -5.6830   -1.8130 H   0  0
    4.9750   -2.1750    2.7030 H   0  0
    4.1270    3.5210    2.3930 H   0  0
    5.0000    2.6510   -1.7220 H   0  0
    4.9880   -3.0180   -1.5110 H   0  0
    6.0910   -3.1460    0.7100 H   0  0
    5.5710    3.8060    0.3970 H   0  0
  1  2  2  0
  1  3  1  0
  1  6  1  0
  2  5  1  0
  2  9  1  0
  3  4  2  0
  3 11  1  0
  4  7  1  0
  4 10  1  0
  5  7  2  0
  5 25  1  0
  6 13  2  0
  6 14  1  0
  7 26  1  0
  8 10  2  0
  8 12  1  0
  9 15  2  0
  9 16  1  0
 10 27  1  0
 11 17  1  0
 11 28  1  0
 12 29  1  0
 13 22  1  0
 13 30  1  0
 14 19  2  0
 14 31  1  0
 15 20  1  0
 15 32  1  0
 16 21  2  0
 16 33  1  0
 17 18  1  0
 17 34  1  0
 17 35  1  0
 18 36  1  0
 18 37  1  0
 18 38  1  0
 19 23  1  0
 19 39  1  0
 20 24  2  0
 20 40  1  0
 21 24  1  0
 21 41  1  0
 22 23  2  0
 22 42  1  0
 23 43  1  0
 24 44  1  0
M  END
> <Name>
BDB50133069

> <Target>
Estrogen Receptor (ER-beta)

> <Kd_from_ITC>
false

> <Uniprot_ID>
Q92731

> <source_organism>
Homo sapiens

> <Ki_in_nM>
0.048

$$$$
BDB50104326
  SciTegic10041214373D

 70 74  0  0  0  0            999 V2000
    0.9860   -0.6750    0.1560 C   0  0
    0.7140    1.5660    0.3800 C   0  0
    1.6830    0.5200    0.2140 C   0  0
   -0.5190    0.9290    0.4030 C   0  0
   -0.3490   -0.4170    0.2680 O   0  0
    1.3230   -2.0910    0.0260 C   0  0
    3.1260    0.6110    0.1050 C   0  0
   -1.9090    1.3520    0.5290 C   0  0
   -8.6740    4.8630    0.1430 N   0  3
    2.4730   -2.6240    0.6270 C   0  0
    0.4900   -2.9520   -0.7060 C   0  0
   -2.8200    0.5790    1.2600 C   0  0
    3.8840    1.0510    1.1970 C   0  0
    3.7690    0.2720   -1.0930 C   0  0
   -2.3720    2.5250   -0.0790 C   0  0
    0.9980    3.0300    0.5130 C   0  0
    5.8980    0.8040   -0.1030 C   0  0
    1.9490   -4.8090   -0.2450 C   0  0
   -4.6070    2.1510    0.7810 C   0  0
    5.1580    0.3670   -1.1990 C   0  0
    0.8000   -4.3080   -0.8450 C   0  0
    2.7860   -3.9790    0.4900 C   0  0
    5.2720    1.1450    1.0910 C   0  0
   -3.7100    2.9240    0.0460 C   0  0
   -4.1540    0.9770    1.3870 C   0  0
   -5.9320    2.4240    0.9810 O   0  0
   -7.9460    3.6630    0.7170 C   0  0
    7.2570    0.9150   -0.1610 O   0  0
    2.2930   -6.1250   -0.3540 O   0  0
   -6.4600    3.6010    0.3650 C   0  0
   -8.7480    4.8700   -1.3670 C   0  0
   -8.2090    6.1880    0.7030 C   0  0
    1.3350    3.6880   -0.8170 C   0  0
   -9.1710    7.2830    0.2610 C   0  0
   -9.7120    5.9610   -1.8160 C   0  0
   -9.3200    7.3250   -1.2560 C   0  0
   -9.6450    4.7490    0.4680 H   0  0
    3.1340   -1.9990    1.2210 H   0  0
   -0.4110   -2.5670   -1.1810 H   0  0
   -2.4940   -0.3420    1.7440 H   0  0
    3.4030    1.3190    2.1350 H   0  0
    3.1930   -0.0650   -1.9530 H   0  0
   -1.7020    3.1390   -0.6750 H   0  0
    0.1400    3.5430    0.9620 H   0  0
    1.8300    3.1810    1.2100 H   0  0
    5.6390    0.1010   -2.1350 H   0  0
    0.1370   -4.9470   -1.4200 H   0  0
    3.6780   -4.3830    0.9590 H   0  0
    5.8630    1.4830    1.9370 H   0  0
   -4.0100    3.8410   -0.4490 H   0  0
   -4.8420    0.3630    1.9620 H   0  0
   -8.0890    3.6940    1.8040 H   0  0
   -8.4700    2.7700    0.3560 H   0  0
    7.5580    0.6280   -1.0390 H   0  0
    1.6140   -6.5820   -0.8760 H   0  0
   -6.3330    3.5360   -0.7210 H   0  0
   -5.9420    4.4830    0.7560 H   0  0
   -9.1000    3.8840   -1.6860 H   0  0
   -7.7380    5.0460   -1.7530 H   0  0
   -8.1950    6.0990    1.7940 H   0  0
   -7.1960    6.3740    0.3330 H   0  0
    0.5270    3.5590   -1.5440 H   0  0
    2.2450    3.2630   -1.2530 H   0  0
    1.4990    4.7610   -0.6770 H   0  0
   -8.8140    8.2530    0.6230 H   0  0
  -10.1540    7.1150    0.7190 H   0  0
   -9.7330    6.0040   -2.9100 H   0  0
  -10.7280    5.7110   -1.4870 H   0  0
  -10.0740    8.0700   -1.5340 H   0  0
   -8.3730    7.6450   -1.7070 H   0  0
  1  3  2  0
  1  5  1  0
  1  6  1  0
  2  3  1  0
  2  4  2  0
  2 16  1  0
  3  7  1  0
  4  5  1  0
  4  8  1  0
  6 10  2  0
  6 11  1  0
  7 13  2  0
  7 14  1  0
  8 12  2  0
  8 15  1  0
  9 27  1  0
  9 31  1  0
  9 32  1  0
  9 37  1  0
 10 22  1  0
 10 38  1  0
 11 21  2  0
 11 39  1  0
 12 25  1  0
 12 40  1  0
 13 23  1  0
 13 41  1  0
 14 20  2  0
 14 42  1  0
 15 24  2  0
 15 43  1  0
 16 33  1  0
 16 44  1  0
 16 45  1  0
 17 20  1  0
 17 23  2  0
 17 28  1  0
 18 21  1  0
 18 22  2  0
 18 29  1  0
 19 24  1  0
 19 25  2  0
 19 26  1  0
 20 46  1  0
 21 47  1  0
 22 48  1  0
 23 49  1  0
 24 50  1  0
 25 51  1  0
 26 30  1  0
 27 30  1  0
 27 52  1  0
 27 53  1  0
 28 54  1  0
 29 55  1  0
 30 56  1  0
 30 57  1  0
 31 35  1  0
 31 58  1  0
 31 59  1  0
 32 34  1  0
 32 60  1  0
 32 61  1  0
 33 62  1  0
 33 63  1  0
 33 64  1  0
 34 36  1  0
 34 65  1  0
 34 66  1  0
 35 36  1  0
 35 67  1  0
 35 68  1  0
 36 69  1  0
 36 70  1  0
M  CHG  1   9   1
M  END
> <Name>
BDB50104326

> <Target>
Estrogen Receptor (ER-beta)

> <Kd_from_ITC>
false

> <Uniprot_ID>
Q92731

> <source_organism>
Homo sapiens

> <Ki_in_nM>
0.059999999

$$$$
BDB50126769
  SciTegic10041214373D

 59 61  0  0  0  0            999 V2000
    2.5370   -1.6050   -0.1930 C   0  0
    3.5940   -0.8580    0.2310 C   0  0
    1.1910   -0.9860   -0.2880 C   0  0
    4.9620   -1.4290    0.3300 C   0  0
    2.7050   -3.0390   -0.5510 C   0  0
    0.8550   -0.1590   -1.3640 C   0  0
    0.2300   -1.2530    0.6950 C   0  0
    5.7190   -1.6680   -0.8260 C   0  0
    5.5120   -1.7350    1.5840 C   0  0
   -5.9910    1.1860    0.8460 N   0  3
    7.5310   -2.5080    0.5230 C   0  0
   -1.3820    0.1340   -0.4640 C   0  0
    6.7960   -2.2760    1.6820 C   0  0
    7.0030   -2.2080   -0.7280 C   0  0
   -1.0500   -0.6940    0.6090 C   0  0
   -0.4230    0.3990   -1.4460 C   0  0
    3.5160    0.5900    0.6950 C   0  0
   -2.5930    0.7370   -0.6710 O   0  0
    8.7890   -3.0340    0.5720 O   0  0
   -3.6270    0.4720    0.2780 C   0  0
   -4.8720    1.2340   -0.1790 C   0  0
    2.6690   -3.4350   -1.8950 C   0  0
    2.8660   -4.0120    0.4450 C   0  0
   -7.0680    2.1900    0.5160 C   0  0
   -6.5800   -0.1870    1.0310 C   0  0
    4.0760    1.5680   -0.3320 C   0  0
    3.0040   -5.3580    0.1000 C   0  0
    2.8070   -4.7810   -2.2370 C   0  0
    2.9750   -5.7410   -1.2400 C   0  0
    1.5820    0.0530   -2.1450 H   0  0
    0.4730   -1.9000    1.5360 H   0  0
    5.3140   -1.4350   -1.8070 H   0  0
    4.9380   -1.5610    2.4910 H   0  0
   -5.6010    1.4770    1.7530 H   0  0
    7.2000   -2.5070    2.6620 H   0  0
    7.5870   -2.3950   -1.6240 H   0  0
   -1.7570   -0.9310    1.3970 H   0  0
   -0.6730    1.0420   -2.2870 H   0  0
    2.4870    0.8820    0.9290 H   0  0
    4.0610    0.7130    1.6400 H   0  0
    9.0230   -3.1960    1.5010 H   0  0
   -3.8350   -0.6030    0.3070 H   0  0
   -3.3230    0.8250    1.2700 H   0  0
   -5.2610    0.8410   -1.1250 H   0  0
   -4.6200    2.2900   -0.3320 H   0  0
    2.5400   -2.6980   -2.6840 H   0  0
    2.8890   -3.7280    1.4940 H   0  0
   -7.5090    1.9230   -0.4480 H   0  0
   -6.6080    3.1810    0.4770 H   0  0
   -7.8150    2.1610    1.3130 H   0  0
   -5.8010   -0.8480    1.4160 H   0  0
   -6.9570   -0.5380    0.0660 H   0  0
   -7.3880   -0.1150    1.7630 H   0  0
    3.5610    1.4770   -1.2930 H   0  0
    5.1450    1.4060   -0.5000 H   0  0
    3.9480    2.5960    0.0230 H   0  0
    3.1340   -6.1060    0.8770 H   0  0
    2.7830   -5.0810   -3.2810 H   0  0
    3.0830   -6.7890   -1.5080 H   0  0
  1  2  2  0
  1  3  1  0
  1  5  1  0
  2  4  1  0
  2 17  1  0
  3  6  2  0
  3  7  1  0
  4  8  2  0
  4  9  1  0
  5 22  2  0
  5 23  1  0
  6 16  1  0
  6 30  1  0
  7 15  2  0
  7 31  1  0
  8 14  1  0
  8 32  1  0
  9 13  2  0
  9 33  1  0
 10 21  1  0
 10 24  1  0
 10 25  1  0
 10 34  1  0
 11 13  1  0
 11 14  2  0
 11 19  1  0
 12 15  1  0
 12 16  2  0
 12 18  1  0
 13 35  1  0
 14 36  1  0
 15 37  1  0
 16 38  1  0
 17 26  1  0
 17 39  1  0
 17 40  1  0
 18 20  1  0
 19 41  1  0
 20 21  1  0
 20 42  1  0
 20 43  1  0
 21 44  1  0
 21 45  1  0
 22 28  1  0
 22 46  1  0
 23 27  2  0
 23 47  1  0
 24 48  1  0
 24 49  1  0
 24 50  1  0
 25 51  1  0
 25 52  1  0
 25 53  1  0
 26 54  1  0
 26 55  1  0
 26 56  1  0
 27 29  1  0
 27 57  1  0
 28 29  2  0
 28 58  1  0
 29 59  1  0
M  CHG  1  10   1
M  END
> <Name>
BDB50126769

> <Target>
Estrogen Receptor (ER-beta)

> <Kd_from_ITC>
false

> <Uniprot_ID>
Q92731

> <source_organism>
Homo sapiens

> <Ki_in_nM>
0.16

$$$$
BDB19968
  SciTegic10041214373D

 39 42  0  0  1  0            999 V2000
    1.2740   -0.5960    0.1440 C   0  0
    1.2290    0.7950    0.2240 C   0  0
    0.0330    1.4820    0.0580 C   0  0
   -1.1400    0.7680   -0.1780 C   0  0
    0.1010   -1.3250   -0.1150 C   0  0
   -1.1090   -0.6270   -0.2420 C   0  0
    0.1450   -2.8320   -0.2200 C   0  0  2  0  0  0
    0.3580   -3.2550   -2.5900 C   0  0
    1.1140   -3.3750   -1.2740 C   0  0
   -1.1960   -3.4090   -0.6910 C   0  0  2  0  0  0
   -1.1220   -3.3770   -2.2310 C   0  0
   -2.3550   -2.6180   -0.0770 C   0  0  2  0  0  0
   -3.7030   -3.2280   -0.4280 C   0  0
   -4.4950   -2.7300   -1.4740 C   0  0
   -4.1680   -4.3410    0.2950 C   0  0
   -5.3930   -4.9370   -0.0150 C   0  0
   -6.1590   -4.4220   -1.0550 C   0  0
   -5.7190   -3.3250   -1.7860 C   0  0
   -2.3160   -1.2370   -0.4660 O   0  0
   -7.3610   -4.9730   -1.3940 O   0  0
    2.3540    1.5290    0.4660 O   0  0
    2.2150   -1.1210    0.2800 H   0  0
    0.0130    2.5660    0.1180 H   0  0
   -2.0810    1.2970   -0.3000 H   0  0
    0.3970   -3.2250    0.7740 H   0  0
    0.5480   -2.2770   -3.0460 H   0  0
    0.6700   -4.0190   -3.3090 H   0  0
    2.0790   -2.8620   -1.3130 H   0  0
    1.3140   -4.4350   -1.0710 H   0  0
   -1.2510   -4.4620   -0.3800 H   0  0
   -1.5500   -4.2960   -2.6490 H   0  0
   -1.6760   -2.5400   -2.6690 H   0  0
   -2.2750   -2.6390    1.0210 H   0  0
   -4.1630   -1.8740   -2.0570 H   0  0
   -3.5740   -4.7530    1.1090 H   0  0
   -5.7260   -5.7940    0.5620 H   0  0
   -6.3260   -2.9330   -2.5960 H   0  0
   -7.5350   -5.7240   -0.8030 H   0  0
    3.1090    0.9250    0.5510 H   0  0
  1  2  2  0
  1  5  1  0
  1 22  1  0
  2  3  1  0
  2 21  1  0
  3  4  2  0
  3 23  1  0
  4  6  1  0
  4 24  1  0
  5  6  2  0
  5  7  1  0
  6 19  1  0
  7  9  1  0
  7 10  1  0
  7 25  1  0
  8  9  1  0
  8 11  1  0
  8 26  1  0
  8 27  1  0
  9 28  1  0
  9 29  1  0
 10 11  1  0
 10 12  1  0
 10 30  1  0
 11 31  1  0
 11 32  1  0
 12 13  1  0
 12 19  1  0
 12 33  1  0
 13 14  1  0
 13 15  2  0
 14 18  2  0
 14 34  1  0
 15 16  1  0
 15 35  1  0
 16 17  2  0
 16 36  1  0
 17 18  1  0
 17 20  1  0
 18 37  1  0
 20 38  1  0
 21 39  1  0
M  END
> <Name>
BDB19968

> <Target>
Estrogen Receptor (ER-beta)

> <Kd_from_ITC>
false

> <Uniprot_ID>
Q92731

> <source_organism>
Homo sapiens (human)

> <Ki_in_nM>
0.19

$$$$
BDB50104329
  SciTegic10041214373D

 69 73  0  0  0  0            999 V2000
    0.4710   -0.7490    0.7460 C   0  0
    0.1370    1.4220    0.1810 C   0  0
    1.1320    0.4500    0.5380 C   0  0
   -1.0690    0.7350    0.1870 C   0  0
   -0.8630   -0.5690    0.5270 O   0  0
    2.5690    0.5970    0.6630 C   0  0
   -2.4620    1.0760   -0.0820 C   0  0
    0.8470   -2.1020    1.1440 C   0  0
   10.1420    0.0620    0.0330 N   0  3
   -3.4890    0.5210    0.6980 C   0  0
   -2.8090    1.9530   -1.1200 C   0  0
    3.1080    1.4280    1.6480 C   0  0
    3.4290   -0.0870   -0.2040 C   0  0
    0.3680    2.8700   -0.1180 C   0  0
   -5.1440    1.7240   -0.5730 C   0  0
    5.3550    0.8710    0.9080 C   0  0
   -4.8260    0.8460    0.4550 C   0  0
   -4.1460    2.2800   -1.3670 C   0  0
    4.4940    1.5620    1.7670 C   0  0
    4.8170    0.0480   -0.0810 C   0  0
    6.6870    1.0860    1.1390 O   0  0
    9.0220    0.7390    0.8010 C   0  0
   -6.4610    2.0170   -0.7760 O   0  0
    7.6170    0.3720    0.3210 C   0  0
   10.2360    0.4890   -1.4140 C   0  0
   10.1680   -1.4410    0.1920 C   0  0
    1.8110   -2.3240    2.1370 C   0  0
    0.2450   -3.2120    0.5340 C   0  0
    0.9560    3.1000   -1.5030 C   0  0
   11.5320   -0.0460   -2.0090 C   0  0
   11.4640   -1.9820   -0.3970 C   0  0
    2.1750   -3.6230    2.5010 C   0  0
    0.6080   -4.5110    0.8980 C   0  0
   11.6430   -1.5590   -1.8520 C   0  0
    1.5750   -4.7160    1.8800 C   0  0
   11.0030    0.4060    0.4810 H   0  0
   -3.2530   -0.1660    1.5080 H   0  0
   -2.0430    2.3820   -1.7600 H   0  0
    2.4570    1.9690    2.3330 H   0  0
    3.0270   -0.7330   -0.9820 H   0  0
   -0.5690    3.4310   -0.0260 H   0  0
    1.0410    3.2980    0.6340 H   0  0
   -5.6120    0.4140    1.0670 H   0  0
   -4.3830    2.9610   -2.1780 H   0  0
    4.9040    2.2090    2.5390 H   0  0
    5.4400   -0.5040   -0.7760 H   0  0
    9.1900    1.8200    0.7240 H   0  0
    9.1540    0.4740    1.8570 H   0  0
   -6.5330    2.6350   -1.5220 H   0  0
    7.4860    0.6680   -0.7250 H   0  0
    7.4530   -0.7060    0.4330 H   0  0
   10.2200    1.5840   -1.4380 H   0  0
    9.3610    0.0940   -1.9410 H   0  0
   10.1050   -1.6620    1.2620 H   0  0
    9.2940   -1.8510   -0.3240 H   0  0
    2.2830   -1.4890    2.6490 H   0  0
   -0.5100   -3.0720   -0.2370 H   0  0
    0.3110    2.6860   -2.2850 H   0  0
    1.9400    2.6310   -1.6010 H   0  0
    1.0740    4.1720   -1.6900 H   0  0
   11.5840    0.2180   -3.0720 H   0  0
   12.3880    0.4350   -1.5190 H   0  0
   11.4700   -3.0760   -0.3290 H   0  0
   12.3150   -1.6230    0.1940 H   0  0
    2.9260   -3.7790    3.2710 H   0  0
    0.1350   -5.3620    0.4140 H   0  0
   12.6170   -1.9000   -2.2200 H   0  0
   10.8790   -2.0470   -2.4700 H   0  0
    1.8550   -5.7270    2.1640 H   0  0
  1  3  2  0
  1  5  1  0
  1  8  1  0
  2  3  1  0
  2  4  2  0
  2 14  1  0
  3  6  1  0
  4  5  1  0
  4  7  1  0
  6 12  2  0
  6 13  1  0
  7 10  2  0
  7 11  1  0
  8 27  2  0
  8 28  1  0
  9 22  1  0
  9 25  1  0
  9 26  1  0
  9 36  1  0
 10 17  1  0
 10 37  1  0
 11 18  2  0
 11 38  1  0
 12 19  1  0
 12 39  1  0
 13 20  2  0
 13 40  1  0
 14 29  1  0
 14 41  1  0
 14 42  1  0
 15 17  2  0
 15 18  1  0
 15 23  1  0
 16 19  2  0
 16 20  1  0
 16 21  1  0
 17 43  1  0
 18 44  1  0
 19 45  1  0
 20 46  1  0
 21 24  1  0
 22 24  1  0
 22 47  1  0
 22 48  1  0
 23 49  1  0
 24 50  1  0
 24 51  1  0
 25 30  1  0
 25 52  1  0
 25 53  1  0
 26 31  1  0
 26 54  1  0
 26 55  1  0
 27 32  1  0
 27 56  1  0
 28 33  2  0
 28 57  1  0
 29 58  1  0
 29 59  1  0
 29 60  1  0
 30 34  1  0
 30 61  1  0
 30 62  1  0
 31 34  1  0
 31 63  1  0
 31 64  1  0
 32 35  2  0
 32 65  1  0
 33 35  1  0
 33 66  1  0
 34 67  1  0
 34 68  1  0
 35 69  1  0
M  CHG  1   9   1
M  END
> <Name>
BDB50104329

> <Target>
Estrogen Receptor (ER-beta)

> <Kd_from_ITC>
false

> <Uniprot_ID>
Q92731

> <source_organism>
Homo sapiens

> <Ki_in_nM>
0.43000001

$$$$
BDB50173663
  SciTegic10041214373D

 43 46  0  0  0  0            999 V2000
    1.8290   -2.7940   -0.0040 C   0  0
    2.3230   -1.5330   -0.0950 C   0  0
    1.1590   -0.6330   -0.1810 C   0  0
   -0.0220   -1.3840   -0.1450 C   0  0
    0.3130   -2.8370   -0.0450 C   0  0
    7.9000   -0.1030   -0.0160 C   0  0
    2.5710   -4.0570    0.1270 C   0  0
    3.7450   -1.1650   -0.0980 C   0  0
    1.1110    0.7480   -0.2990 C   0  0
    6.4660   -0.4770   -0.0750 C   0  0
   -1.2700   -0.7850   -0.2090 C   0  0
    8.2570    0.9800    0.4320 O   0  0
    4.6110   -1.6600   -1.0820 C   0  0
    4.2490   -0.3010    0.8830 C   0  0
    5.6010    0.0470    0.8920 C   0  0
    5.9660   -1.3220   -1.0720 C   0  0
    3.5320   -4.2280    1.1340 C   0  0
    2.3100   -5.1260   -0.7440 C   0  0
    8.7960   -1.0430   -0.4510 N   0  0
   -1.3130    0.6040   -0.3170 C   0  0
   -0.1410    1.3680   -0.3640 C   0  0
    3.9540   -6.4790    0.3820 C   0  0
    4.2240   -5.4350    1.2580 C   0  0
    3.0000   -6.3370   -0.6200 C   0  0
   -2.5020    1.2720   -0.3840 O   0  0
    4.6500   -7.6420    0.5410 O   0  0
   -0.0960   -3.2690    0.8740 H   0  0
   -0.0580   -3.3740   -0.9230 H   0  0
    2.0160    1.3440   -0.3440 H   0  0
   -2.1720   -1.3870   -0.1780 H   0  0
    4.2350   -2.3150   -1.8650 H   0  0
    3.5950    0.1010    1.6540 H   0  0
    5.9790    0.7170    1.6620 H   0  0
    6.6060   -1.7080   -1.8600 H   0  0
    3.7450   -3.4270    1.8380 H   0  0
    1.5770   -5.0240   -1.5410 H   0  0
    8.5400   -1.9650   -0.7770 H   0  0
    9.7790   -0.8040   -0.4330 H   0  0
   -0.2060    2.4490   -0.4530 H   0  0
    4.9680   -5.5590    2.0400 H   0  0
    2.7810   -7.1450   -1.3110 H   0  0
   -3.2230    0.6220   -0.3440 H   0  0
    4.3290   -8.2920   -0.1060 H   0  0
  1  2  2  0
  1  5  1  0
  1  7  1  0
  2  3  1  0
  2  8  1  0
  3  4  2  0
  3  9  1  0
  4  5  1  0
  4 11  1  0
  5 27  1  0
  5 28  1  0
  6 10  1  0
  6 12  2  0
  6 19  1  0
  7 17  2  0
  7 18  1  0
  8 13  1  0
  8 14  2  0
  9 21  2  0
  9 29  1  0
 10 15  2  0
 10 16  1  0
 11 20  2  0
 11 30  1  0
 13 16  2  0
 13 31  1  0
 14 15  1  0
 14 32  1  0
 15 33  1  0
 16 34  1  0
 17 23  1  0
 17 35  1  0
 18 24  2  0
 18 36  1  0
 19 37  1  0
 19 38  1  0
 20 21  1  0
 20 25  1  0
 21 39  1  0
 22 23  2  0
 22 24  1  0
 22 26  1  0
 23 40  1  0
 24 41  1  0
 25 42  1  0
 26 43  1  0
M  END
> <Name>
BDB50173663

> <Target>
Estrogen Receptor (ER-beta)

> <Kd_from_ITC>
false

> <Uniprot_ID>
Q92731

> <source_organism>
Homo sapiens

> <Ki_in_nM>
0.46000001

$$$$
BDB50104325
  SciTegic10041214373D

 51 54  0  0  0  0            999 V2000
    0.8910   -0.6870    0.1130 C   0  0
    0.2140    1.4770    0.1620 C   0  0
    1.3590    0.6130    0.1990 C   0  0
   -0.8820    0.6340    0.0440 C   0  0
   -0.4700   -0.6660    0.0150 O   0  0
    1.4820   -2.0230    0.1150 C   0  0
    2.7670    0.9450    0.2930 C   0  0
   -2.3270    0.8130   -0.0570 C   0  0
    2.5850   -2.3270    0.9260 C   0  0
    0.9510   -3.0330   -0.7040 C   0  0
   -3.1980   -0.0750    0.5930 C   0  0
   -2.8780    1.8630   -0.8050 C   0  0
    3.2690    1.5550    1.4450 C   0  0
    3.6340    0.6600   -0.7690 C   0  0
    0.2210    2.9710    0.2480 C   0  0
    2.6170   -4.5840    0.0800 C   0  0
   -5.1040    1.1440   -0.2310 C   0  0
    5.4990    1.5680    0.4810 C   0  0
    1.5170   -4.3110   -0.7250 C   0  0
   -4.2640    2.0320   -0.8930 C   0  0
    3.1520   -3.6040    0.9060 C   0  0
   -4.5820    0.0910    0.5090 C   0  0
    4.6290    1.8610    1.5350 C   0  0
    4.9950    0.9690   -0.6740 C   0  0
   -6.4610    1.2730   -0.2850 O   0  0
    3.2050   -5.8140    0.0900 O   0  0
    6.8030    1.9150    0.7030 O   0  0
    7.7390    1.5730   -0.3110 C   0  0
    0.6480    3.6340   -1.0530 C   0  0
    3.0130   -1.5810    1.5900 H   0  0
    0.0930   -2.8260   -1.3400 H   0  0
   -2.8010   -0.9030    1.1780 H   0  0
   -2.2360    2.5560   -1.3430 H   0  0
    2.6150    1.7860    2.2820 H   0  0
    3.2590    0.1930   -1.6770 H   0  0
   -0.7710    3.3390    0.5330 H   0  0
    0.8950    3.2890    1.0520 H   0  0
    1.0880   -5.0690   -1.3730 H   0  0
   -4.6600    2.8540   -1.4800 H   0  0
    4.0070   -3.8310    1.5360 H   0  0
   -5.2470   -0.5990    1.0200 H   0  0
    5.0150    2.3290    2.4370 H   0  0
    5.6310    0.7280   -1.5200 H   0  0
   -6.6800    2.0420   -0.8360 H   0  0
    2.7240   -6.3930   -0.5240 H   0  0
    7.5240    2.1070   -1.2430 H   0  0
    7.7700    0.4900   -0.4730 H   0  0
    8.7310    1.8860    0.0300 H   0  0
   -0.0020    3.3410   -1.8840 H   0  0
    1.6740    3.3630   -1.3220 H   0  0
    0.6030    4.7230   -0.9540 H   0  0
  1  3  2  0
  1  5  1  0
  1  6  1  0
  2  3  1  0
  2  4  2  0
  2 15  1  0
  3  7  1  0
  4  5  1  0
  4  8  1  0
  6  9  2  0
  6 10  1  0
  7 13  2  0
  7 14  1  0
  8 11  2  0
  8 12  1  0
  9 21  1  0
  9 30  1  0
 10 19  2  0
 10 31  1  0
 11 22  1  0
 11 32  1  0
 12 20  2  0
 12 33  1  0
 13 23  1  0
 13 34  1  0
 14 24  2  0
 14 35  1  0
 15 29  1  0
 15 36  1  0
 15 37  1  0
 16 19  1  0
 16 21  2  0
 16 26  1  0
 17 20  1  0
 17 22  2  0
 17 25  1  0
 18 23  2  0
 18 24  1  0
 18 27  1  0
 19 38  1  0
 20 39  1  0
 21 40  1  0
 22 41  1  0
 23 42  1  0
 24 43  1  0
 25 44  1  0
 26 45  1  0
 27 28  1  0
 28 46  1  0
 28 47  1  0
 28 48  1  0
 29 49  1  0
 29 50  1  0
 29 51  1  0
M  END
> <Name>
BDB50104325

> <Target>
Estrogen Receptor (ER-beta)

> <Kd_from_ITC>
false

> <Uniprot_ID>
Q92731

> <source_organism>
Homo sapiens

> <Ki_in_nM>
0.91000003

$$$$
BDB50264124
  SciTegic10041214373D

 61 64  0  0  0  0            999 V2000
    2.8620   -1.7500   -1.2830 C   0  0
    1.9580   -2.4930   -2.0250 C   0  0
    0.6320   -2.0870   -2.1420 C   0  0
    2.4350   -0.5820   -0.6500 C   0  0
    1.0970   -0.1390   -0.7520 C   0  0
    0.1910   -0.9130   -1.5070 C   0  0
   -1.1470   -0.5030   -1.6100 C   0  0
   -1.6250    0.6590   -0.9720 C   0  0
   -0.7370    1.4480   -0.2080 C   0  0
    0.6210    1.0460   -0.1370 C   0  0
    1.5200    1.7800    0.6230 O   0  0
   -1.2030    2.6430    0.5200 C   0  0
   -1.4640    2.5840    1.8980 C   0  0
   -1.8850    3.7180    2.5950 C   0  0
   -2.0440    4.9290    1.9250 C   0  0
   -1.7850    5.0060    0.5580 C   0  0
   -1.3700    3.8710   -0.1400 C   0  0
    1.9690    2.9730    0.0910 C   0  0
    2.1420    3.2140   -1.2730 C   0  0
    2.6020    4.4620   -1.7070 C   0  0
    2.8930    5.4830   -0.7900 C   0  0
    2.7480    5.2160    0.5770 C   0  0
    2.2910    3.9690    1.0150 C   0  0
    3.3950    6.7690   -1.3000 C   0  0
    3.2080    7.9610   -0.7110 C   0  0
    3.7570    9.2580   -1.3170 C   0  0
    4.3680    9.1530   -2.4180 O   0  5
    3.5220   10.2880   -0.6220 O   0  0
   -3.1030    0.9730   -1.1010 C   0  0
    2.4130   -3.6280   -2.6300 O   0  0
   -3.9290    0.2900   -0.0080 C   0  0
   -5.4130    0.6390   -0.1370 C   0  0
   -6.2400   -0.0410    0.9540 C   0  0
   -7.7160    0.3040    0.8310 C   0  0
    3.8940   -2.0750   -1.1940 H   0  0
   -0.0690   -2.6800   -2.7240 H   0  0
    3.1610   -0.0150   -0.0710 H   0  0
   -1.8460   -1.1080   -2.1870 H   0  0
   -1.3370    1.6470    2.4370 H   0  0
   -2.0840    3.6560    3.6620 H   0  0
   -2.3590    5.8160    2.4670 H   0  0
   -1.8970    5.9520    0.0350 H   0  0
   -1.1600    3.9520   -1.2050 H   0  0
    1.9300    2.4500   -2.0140 H   0  0
    2.7250    4.6350   -2.7740 H   0  0
    2.9950    5.9720    1.3180 H   0  0
    2.1740    3.7810    2.0780 H   0  0
    3.9430    6.7250   -2.2400 H   0  0
    2.6470    8.0590    0.2140 H   0  0
   -3.2730    2.0550   -1.0900 H   0  0
   -3.4540    0.6440   -2.0880 H   0  0
    1.6770   -4.0480   -3.1050 H   0  0
   -3.8010   -0.7980   -0.0710 H   0  0
   -3.5690    0.5910    0.9830 H   0  0
   -5.5420    1.7260   -0.0710 H   0  0
   -5.7790    0.3280   -1.1230 H   0  0
   -5.8800    0.2690    1.9420 H   0  0
   -6.1190   -1.1280    0.8910 H   0  0
   -8.1150   -0.0220   -0.1350 H   0  0
   -7.8750    1.3830    0.9220 H   0  0
   -8.2880   -0.1920    1.6210 H   0  0
  1  2  1  0
  1  4  2  0
  1 35  1  0
  2  3  2  0
  2 30  1  0
  3  6  1  0
  3 36  1  0
  4  5  1  0
  4 37  1  0
  5  6  1  0
  5 10  2  0
  6  7  2  0
  7  8  1  0
  7 38  1  0
  8  9  2  0
  8 29  1  0
  9 10  1  0
  9 12  1  0
 10 11  1  0
 11 18  1  0
 12 13  1  0
 12 17  2  0
 13 14  2  0
 13 39  1  0
 14 15  1  0
 14 40  1  0
 15 16  2  0
 15 41  1  0
 16 17  1  0
 16 42  1  0
 17 43  1  0
 18 19  1  0
 18 23  2  0
 19 20  2  0
 19 44  1  0
 20 21  1  0
 20 45  1  0
 21 22  2  0
 21 24  1  0
 22 23  1  0
 22 46  1  0
 23 47  1  0
 24 25  2  0
 24 48  1  0
 25 26  1  0
 25 49  1  0
 26 27  1  0
 26 28  2  0
 29 31  1  0
 29 50  1  0
 29 51  1  0
 30 52  1  0
 31 32  1  0
 31 53  1  0
 31 54  1  0
 32 33  1  0
 32 55  1  0
 32 56  1  0
 33 34  1  0
 33 57  1  0
 33 58  1  0
 34 59  1  0
 34 60  1  0
 34 61  1  0
M  CHG  1  27  -1
M  END
> <Name>
BDB50264124

> <Target>
Estrogen Receptor (ER-beta)

> <Kd_from_ITC>
false

> <Uniprot_ID>
Q92731

> <source_organism>
Homo sapiens

> <Ki_in_nM>
3

$$$$
BDB17292
  SciTegic10041214373D

 44 47  0  0  1  0            999 V2000
    1.9550   -1.1480    0.5980 C   0  0  2  0  0  0
    1.9750    0.3760    0.3620 C   0  0  2  0  0  0
    0.6340    1.0310    0.6960 C   0  0  1  0  0  0
    0.3270    0.7990    2.2070 C   0  0  1  0  0  0
   -0.9640    1.5020    2.6230 C   0  0
   -1.4450    2.6120    1.8920 C   0  0
    1.6990   -1.3940    2.0900 C   0  0
    0.4050   -0.7080    2.5720 C   0  0
    0.6280    2.5350    0.4130 C   0  0
    2.5420    0.5100   -1.0490 C   0  0
   -1.6550    1.1220    3.7890 C   0  0
    3.3810   -1.4910    0.1190 C   0  0  2  0  0  0
   -0.7740    3.0970    0.6290 C   0  0
   -2.6170    3.2740    2.3060 C   0  0
    3.5650   -0.6360   -1.1510 C   0  0
   -3.2870    2.8580    3.4510 C   0  0
   -2.8120    1.7910    4.1960 C   0  0
    0.8980   -1.9180   -0.2340 C   0  0
    3.5980   -2.8670   -0.1250 O   0  0
   -4.4210    3.4820    3.8800 O   0  0
    2.7250    0.8260    1.0340 H   0  0
   -0.1580    0.5790    0.0850 H   0  0
    1.1200    1.2980    2.7870 H   0  0
    2.5370   -1.0040    2.6820 H   0  0
    1.6470   -2.4680    2.3030 H   0  0
   -0.4690   -1.2330    2.1680 H   0  0
    0.3620   -0.8360    3.6600 H   0  0
    1.3410    3.0450    1.0740 H   0  0
    0.9390    2.7470   -0.6150 H   0  0
    3.0180    1.4830   -1.2090 H   0  0
    1.7600    0.3940   -1.8090 H   0  0
   -1.3040    0.3020    4.4090 H   0  0
    4.1180   -1.1760    0.8680 H   0  0
   -1.4080    2.8090   -0.2190 H   0  0
   -0.7140    4.1920    0.6380 H   0  0
   -2.9890    4.1120    1.7240 H   0  0
    4.5870   -0.2430   -1.1940 H   0  0
    3.4100   -1.2140   -2.0690 H   0  0
   -3.3350    1.4790    5.0950 H   0  0
   -0.1250   -1.5940   -0.0240 H   0  0
    0.9390   -2.9900   -0.0120 H   0  0
    1.0520   -1.8060   -1.3120 H   0  0
    3.0830   -3.1270   -0.9070 H   0  0
   -4.6310    4.2030    3.2650 H   0  0
  1  2  1  0
  1  7  1  0
  1 12  1  0
  1 18  1  0
  2  3  1  0
  2 10  1  0
  2 21  1  0
  3  4  1  0
  3  9  1  0
  3 22  1  0
  4  5  1  0
  4  8  1  0
  4 23  1  0
  5  6  2  0
  5 11  1  0
  6 13  1  0
  6 14  1  0
  7  8  1  0
  7 24  1  0
  7 25  1  0
  8 26  1  0
  8 27  1  0
  9 13  1  0
  9 28  1  0
  9 29  1  0
 10 15  1  0
 10 30  1  0
 10 31  1  0
 11 17  2  0
 11 32  1  0
 12 15  1  0
 12 19  1  0
 12 33  1  0
 13 34  1  0
 13 35  1  0
 14 16  2  0
 14 36  1  0
 15 37  1  0
 15 38  1  0
 16 17  1  0
 16 20  1  0
 17 39  1  0
 18 40  1  0
 18 41  1  0
 18 42  1  0
 19 43  1  0
 20 44  1  0
M  END
> <Name>
BDB17292

> <Target>
Estrogen Receptor (ER-beta)

> <IC50_in_nM>
11

> <Kd_from_ITC>
false

> <Uniprot_ID>
Q92731

> <source_organism>
Homo sapiens (human)

> <Ki_in_nM>
3.5

> <Kd_in_nM>
0.5

$$$$
BDB50121622
  SciTegic10041214373D

 79 83  0  0  1  0            999 V2000
    1.2530    0.2990    0.9890 C   0  0
    1.1960    1.4320    0.2880 N   0  0
   -0.0020    1.8480   -0.1240 C   0  0
    0.1660   -0.4090    1.2910 N   0  0
   -1.1220    1.1840    0.1590 N   0  0
   -0.9940    0.0650    0.8620 C   0  0
    2.4800   -0.1650    1.4080 N   0  0
    4.9610   -1.5990    1.4890 N   0  0
   -0.0960    3.0020   -0.8810 N   0  0
    3.7200    0.5320    1.0750 C   0  0
    2.6000   -1.3520    2.2520 C   0  0
   -2.1020   -0.6860    1.1770 N   0  0
    6.0740   -2.4870    1.1320 C   0  0
    3.6840   -2.2980    1.6990 C   0  0
    4.7790   -0.4680    0.5640 C   0  0
    2.3660    9.5580    1.7300 C   0  0
   -8.3810   -0.0220   -0.0140 C   0  0
    2.3590    7.1870    0.2380 C   0  0
   -5.8490   -0.8960    0.7690 C   0  0
    2.3740   11.0160    2.6460 Cl  0  0
    5.9760   -3.2390   -0.1780 C   0  0
    2.0400    9.5930    0.3760 C   0  0
    2.6880    8.3510    2.3470 C   0  0
   -7.9790    0.1430    1.3070 C   0  0
   -7.5420   -0.6210   -0.9470 C   0  0
    2.6850    7.1690    1.6020 C   0  0
   -6.2770   -1.0600   -0.5560 C   0  0
    2.0340    8.4100   -0.3670 C   0  0
   -6.7100   -0.2920    1.6970 C   0  0
   -3.4230   -0.2680    0.7760 C   0  0
   -9.6040    0.4010   -0.4450 O   0  0
    1.0740    3.8150   -1.1810 C   0  0
    1.1470    5.0200   -0.2370 C   0  0
   -1.4020    3.4060   -1.3650 C   0  0
   -4.4610   -1.3190    1.1760 C   0  0
    2.3510    5.9080   -0.5650 C   0  0
    6.4820   -2.6820   -1.3620 C   0  0
    5.3800   -4.5080   -0.2320 C   0  0
    5.2760   -5.1940   -1.4430 C   0  0
    6.3790   -3.3700   -2.5720 C   0  0
    5.7720   -4.6230   -2.6120 C   0  0
    3.5880    1.3010    0.3060 H   0  0
    4.0920    1.0390    1.9740 H   0  0
    1.6680   -1.9220    2.3340 H   0  0
    2.8670   -1.0350    3.2680 H   0  0
   -1.9220   -1.5310    1.6980 H   0  0
    6.2200   -3.2140    1.9430 H   0  0
    7.0050   -1.9040    1.1320 H   0  0
    3.8190   -3.1160    2.4170 H   0  0
    3.3200   -2.7350    0.7610 H   0  0
    5.7250    0.0720    0.4420 H   0  0
    4.4690   -0.8240   -0.4260 H   0  0
    1.7890   10.5330   -0.1080 H   0  0
    2.9400    8.3170    3.4030 H   0  0
   -8.6270    0.6110    2.0410 H   0  0
   -7.8660   -0.7400   -1.9760 H   0  0
    2.9370    6.2320    2.0930 H   0  0
   -5.6240   -1.5210   -1.2930 H   0  0
    1.7760    8.4510   -1.4230 H   0  0
   -6.3930   -0.1480    2.7270 H   0  0
   -3.6690    0.6920    1.2480 H   0  0
   -3.4540   -0.1180   -0.3100 H   0  0
  -10.0950    0.7690    0.3090 H   0  0
    2.0050    3.2380   -1.1330 H   0  0
    1.0040    4.1700   -2.2170 H   0  0
    1.2050    4.6730    0.8030 H   0  0
    0.2230    5.6060   -0.3150 H   0  0
   -2.0810    3.6180   -0.5320 H   0  0
   -1.8440    2.6300   -2.0000 H   0  0
   -1.3380    4.3180   -1.9700 H   0  0
   -4.4240   -1.4950    2.2590 H   0  0
   -4.2240   -2.2850    0.7110 H   0  0
    3.2850    5.3630   -0.3760 H   0  0
    2.3530    6.1500   -1.6350 H   0  0
    6.9530   -1.7010   -1.3490 H   0  0
    4.9820   -4.9650    0.6720 H   0  0
    4.8060   -6.1730   -1.4730 H   0  0
    6.7720   -2.9270   -3.4840 H   0  0
    5.6880   -5.1560   -3.5550 H   0  0
  1  2  2  0
  1  4  1  0
  1  7  1  0
  2  3  1  0
  3  5  2  0
  3  9  1  0
  4  6  2  0
  5  6  1  0
  6 12  1  0
  7 10  1  0
  7 11  1  0
  8 13  1  0
  8 14  1  0
  8 15  1  0
  9 32  1  0
  9 34  1  0
 10 15  1  0
 10 42  1  0
 10 43  1  0
 11 14  1  0
 11 44  1  0
 11 45  1  0
 12 30  1  0
 12 46  1  0
 13 21  1  0
 13 47  1  0
 13 48  1  0
 14 49  1  0
 14 50  1  0
 15 51  1  0
 15 52  1  0
 16 20  1  0
 16 22  1  0
 16 23  2  0
 17 24  1  0
 17 25  2  0
 17 31  1  0
 18 26  2  0
 18 28  1  0
 18 36  1  0
 19 27  2  0
 19 29  1  0
 19 35  1  0
 21 37  2  0
 21 38  1  0
 22 28  2  0
 22 53  1  0
 23 26  1  0
 23 54  1  0
 24 29  2  0
 24 55  1  0
 25 27  1  0
 25 56  1  0
 26 57  1  0
 27 58  1  0
 28 59  1  0
 29 60  1  0
 30 35  1  0
 30 61  1  0
 30 62  1  0
 31 63  1  0
 32 33  1  0
 32 64  1  0
 32 65  1  0
 33 36  1  0
 33 66  1  0
 33 67  1  0
 34 68  1  0
 34 69  1  0
 34 70  1  0
 35 71  1  0
 35 72  1  0
 36 73  1  0
 36 74  1  0
 37 40  1  0
 37 75  1  0
 38 39  2  0
 38 76  1  0
 39 41  1  0
 39 77  1  0
 40 41  2  0
 40 78  1  0
 41 79  1  0
M  END
> <Name>
BDB50121622

> <Target>
Estrogen Receptor (ER-beta)

> <Kd_from_ITC>
false

> <Uniprot_ID>
Q92731

> <source_organism>
Homo sapiens

> <Ki_in_nM>
8

$$$$
BDB50136241
  SciTegic10041214373D

 37 40  0  0  1  0            999 V2000
    1.7360    0.1120    1.1660 C   0  0
    3.3120   -0.4810    1.2920 S   0  0
    1.6500    1.2710    0.4130 C   0  0
    0.5570   -0.4760    1.8590 C   0  0  1  0  0  0
    3.9440    0.7870    0.3090 C   0  0
   -0.7350   -0.1900    1.0510 C   0  0  2  0  0  0
    2.9370    1.6700   -0.1000 C   0  0
    0.3300    1.9660    0.1490 C   0  0
   -0.8690    1.3430    0.9120 C   0  0
    5.2910    0.9680   -0.0670 C   0  0
    0.4660   -1.9610    2.1560 C   0  0
    3.3080    2.7670   -0.9180 C   0  0
   -1.7480   -0.8720    1.9880 C   0  0  2  0  0  0
   -1.0410   -2.1800    2.4080 C   0  0
    5.6100    2.0610   -0.8710 C   0  0
    4.6410    2.9530   -1.2960 C   0  0
   -0.7840   -0.8420   -0.3570 C   0  0
   -2.9930   -1.1470    1.3770 O   0  0
    6.8960    2.2900   -1.2700 O   0  0
    0.4940    0.0480    2.8280 H   0  0
    0.1280    1.9180   -0.9280 H   0  0
    0.4100    3.0270    0.4130 H   0  0
   -0.9150    1.7950    1.9120 H   0  0
   -1.8060    1.6140    0.4120 H   0  0
    6.0470    0.2660    0.2670 H   0  0
    1.0630   -2.2480    3.0280 H   0  0
    0.8050   -2.5730    1.3120 H   0  0
    2.5540    3.4730   -1.2570 H   0  0
   -1.9350   -0.2600    2.8790 H   0  0
   -1.4070   -3.0480    1.8490 H   0  0
   -1.2300   -2.3810    3.4690 H   0  0
    4.9150    3.7970   -1.9220 H   0  0
   -0.7850   -1.9360   -0.3130 H   0  0
    0.0610   -0.5540   -0.9880 H   0  0
   -1.6970   -0.5430   -0.8850 H   0  0
   -3.3700   -0.2990    1.0840 H   0  0
    7.4670    1.5940   -0.9030 H   0  0
  1  2  1  0
  1  3  2  0
  1  4  1  0
  2  5  1  0
  3  7  1  0
  3  8  1  0
  4  6  1  0
  4 11  1  0
  4 20  1  0
  5  7  2  0
  5 10  1  0
  6  9  1  0
  6 13  1  0
  6 17  1  0
  7 12  1  0
  8  9  1  0
  8 21  1  0
  8 22  1  0
  9 23  1  0
  9 24  1  0
 10 15  2  0
 10 25  1  0
 11 14  1  0
 11 26  1  0
 11 27  1  0
 12 16  2  0
 12 28  1  0
 13 14  1  0
 13 18  1  0
 13 29  1  0
 14 30  1  0
 14 31  1  0
 15 16  1  0
 15 19  1  0
 16 32  1  0
 17 33  1  0
 17 34  1  0
 17 35  1  0
 18 36  1  0
 19 37  1  0
M  END
> <Name>
BDB50136241

> <Target>
Estrogen Receptor (ER-beta)

> <Kd_from_ITC>
false

> <Uniprot_ID>
Q92731

> <source_organism>
Homo sapiens

> <Ki_in_nM>
11

$$$$
BDB19970
  SciTegic10041214373D

 32 34  0  0  1  0            999 V2000
    1.2760   -0.5600   -0.5860 C   0  0
    1.2010    0.8310   -0.6200 C   0  0
   -0.0120    1.4830   -0.4340 C   0  0
    0.1150   -1.3160   -0.3680 C   0  0
   -1.1020   -0.6580   -0.1600 C   0  0
   -2.2370   -2.7200    0.3040 C   0  0  2  0  0  0
   -2.2860   -1.2970    0.0980 O   0  0
   -2.1470   -3.1120    1.7760 C   0  0
   -1.8250   -2.1890    2.7840 C   0  0
   -2.4020   -4.4440    2.1510 C   0  0
   -2.3250   -4.8450    3.4880 C   0  0
   -1.9950   -3.9110    4.4620 C   0  0
   -1.7470   -2.5880    4.1200 C   0  0
   -1.9070   -4.2560    5.7790 O   0  0
    2.3080    1.5980   -0.8370 O   0  0
    0.1900   -2.8130   -0.3270 C   0  0
   -1.1880   -3.4030   -0.5820 C   0  0
   -1.1660    0.7370   -0.2040 C   0  0
    2.2260   -1.0670   -0.7330 H   0  0
   -0.0580    2.5680   -0.4630 H   0  0
   -3.2210   -3.0730   -0.0330 H   0  0
   -1.6310   -1.1470    2.5460 H   0  0
   -2.6690   -5.1840    1.3990 H   0  0
   -2.5270   -5.8810    3.7430 H   0  0
   -1.4940   -1.8660    4.8910 H   0  0
   -2.1090   -5.2020    5.8680 H   0  0
    3.0770    1.0140   -0.9460 H   0  0
    0.8840   -3.1810   -1.0910 H   0  0
    0.5720   -3.1270    0.6510 H   0  0
   -1.1650   -4.4880   -0.4360 H   0  0
   -1.4530   -3.2260   -1.6330 H   0  0
   -2.1160    1.2420   -0.0520 H   0  0
  1  2  2  0
  1  4  1  0
  1 19  1  0
  2  3  1  0
  2 15  1  0
  3 18  2  0
  3 20  1  0
  4  5  2  0
  4 16  1  0
  5  7  1  0
  5 18  1  0
  6  7  1  0
  6  8  1  0
  6 17  1  0
  6 21  1  0
  8  9  1  0
  8 10  2  0
  9 13  2  0
  9 22  1  0
 10 11  1  0
 10 23  1  0
 11 12  2  0
 11 24  1  0
 12 13  1  0
 12 14  1  0
 13 25  1  0
 14 26  1  0
 15 27  1  0
 16 17  1  0
 16 28  1  0
 16 29  1  0
 17 30  1  0
 17 31  1  0
 18 32  1  0
M  END
> <Name>
BDB19970

> <Target>
Estrogen Receptor (ER-beta)

> <Kd_from_ITC>
false

> <Uniprot_ID>
Q92731

> <source_organism>
Homo sapiens (human)

> <Ki_in_nM>
20.799999

$$$$
BDB50151072
  SciTegic10041214373D

136144  0  0  1  0            999 V2000
   -3.5240   -5.3980   -3.7840 C   0  0
    1.7720   -0.2770    1.1570 C   0  0  2  0  0  0
   -1.9900   -2.3840    2.4630 C   0  0  2  0  0  0
   -5.4630   -4.0120   -5.5530 C   0  0  2  0  0  0
   -3.1710   -6.3080   -2.8370 C   0  0
    0.4460   -1.1320    1.1490 C   0  0  2  0  0  0
   -3.6300   -5.7650   -5.2770 C   0  0  2  0  0  0
   -2.0460   -1.1830    1.4770 C   0  0  2  0  0  0
    1.6130    0.9530    0.1880 C   0  0  2  0  0  0
   -3.8930   -3.9320   -3.4560 C   0  0  2  0  0  0
   -0.8020   -0.2810    1.5390 C   0  0  2  0  0  0
   -5.0810   -5.5070   -5.6940 C   0  0  2  0  0  0
   -2.9590   -7.7150   -3.1890 C   0  0
   -0.7730   -3.2480    2.0600 C   0  0  2  0  0  0
   -5.3000   -3.6080   -4.0670 C   0  0
   -0.9380    0.9790    0.6670 C   0  0  1  0  0  0
   -6.9120   -4.0360   -6.1290 C   0  0  2  0  0  0
    0.5310   -2.4250    2.0080 C   0  0
    0.3630    1.7790    0.5920 C   0  0
   -3.4060   -2.9920    2.1960 C   0  0  2  0  0  0
   -2.3260   -8.5840   -2.3890 C   0  0
    1.6760    0.5840   -1.3490 C   0  0  2  0  0  0
   -7.9440   -4.5320   -5.1960 C   0  0
   -3.3980   -0.5420    1.7560 C   0  0
    3.0110   -1.1010    0.7270 C   0  0
   -3.1210   -7.1750   -5.6030 C   0  0
   -2.9060   -5.9080   -1.3960 C   0  0
   -4.3120   -1.7310    2.0700 C   0  0
   -5.5220   -5.8470   -7.1150 C   0  0
   -8.8020   -4.9260   -4.4530 C   0  0
   -2.7990   -2.9050   -3.7520 C   0  0
   -3.4920   -8.1720   -4.5230 C   0  0
   -1.9140   -8.1770   -1.0330 C   0  0
   -7.5720   -5.5120    3.2540 C   0  0
   -0.8250   -0.9190   -4.3830 C   0  0
   -6.7890   -4.9970   -7.3440 C   0  0
    2.8880   -0.3370   -1.6470 C   0  0  1  0  0  0
    0.1000    0.0340   -4.7830 N   0  0
    2.9610   -1.5410   -0.7190 C   0  0
   -7.8090   -6.2280    2.2400 O   0  0
   -1.5050   -3.2640   -4.1470 C   0  0
   -3.0580   -1.5380   -3.5880 C   0  0
   -2.0960   -0.5700   -3.9100 C   0  0
   -0.5480   -2.2910   -4.4670 C   0  0
   -3.9960   -4.0320    3.1940 C   0  0  1  0  0  0
   -1.0680   -8.8320   -0.4310 O   0  0
   -5.3890   -4.5010    2.7000 C   0  0
   -2.6650   -7.0390   -0.4080 C   0  0
   -0.9870   -3.8490    0.7840 O   0  0
   -1.3760    0.6340   -0.6390 O   0  0
   -6.1060   -5.4370    3.6710 C   0  0
   -7.3050   -2.7430   -6.5760 O   0  0
    2.1010    0.2290    2.5910 C   0  0
   -1.8520   -1.9530    3.9460 C   0  0
   -4.6060   -3.0540   -6.4360 C   0  0
   -8.3650   -4.8520    3.9830 O   0  5
    2.8330   -0.8380   -2.9780 O   0  0
    1.7610    1.8820   -2.2090 C   0  0
    1.5810    1.7640   -3.7300 C   0  0
    0.1620    1.3620   -4.1690 C   0  0
    1.0110   -0.2780   -5.8780 C   0  0
   -3.0760   -5.2370    3.4060 C   0  0
    0.2800   -1.4700    0.1170 H   0  0
   -2.9710   -5.1020   -5.8470 H   0  0
   -2.1060   -1.5800    0.4510 H   0  0
    2.4780    1.6110    0.3610 H   0  0
   -4.0410   -3.8320   -2.3750 H   0  0
   -0.6820    0.0720    2.5680 H   0  0
   -5.7200   -6.1040   -5.0230 H   0  0
   -0.6260   -4.0660    2.7700 H   0  0
   -6.0260   -4.1700   -3.4630 H   0  0
   -5.5730   -2.5560   -3.9360 H   0  0
   -1.7140    1.6230    1.0960 H   0  0
    1.3140   -3.0730    1.5990 H   0  0
    0.8290   -2.1760    3.0310 H   0  0
    0.2220    2.6330   -0.0740 H   0  0
    0.5450    2.2270    1.5770 H   0  0
   -3.3950   -3.4690    1.2050 H   0  0
   -2.1210   -9.6100   -2.6710 H   0  0
    0.7680    0.0450   -1.6380 H   0  0
   -3.7700    0.0270    0.8980 H   0  0
   -3.3510    0.1430    2.6090 H   0  0
    3.1500   -1.9760    1.3720 H   0  0
    3.9170   -0.4940    0.8680 H   0  0
   -3.4870   -7.5180   -6.5770 H   0  0
   -2.0260   -7.1430   -5.6890 H   0  0
   -3.7370   -5.3160   -0.9970 H   0  0
   -2.0170   -5.2620   -1.3950 H   0  0
   -5.0450   -1.8710    1.2680 H   0  0
   -4.8680   -1.5300    2.9930 H   0  0
   -4.7510   -5.5840   -7.8480 H   0  0
   -5.7380   -6.9140   -7.2300 H   0  0
   -9.5610   -5.2680   -3.7880 H   0  0
   -3.0950   -9.1580   -4.7940 H   0  0
   -4.5830   -8.2770   -4.4630 H   0  0
   -7.6660   -5.6480   -7.4470 H   0  0
   -6.6990   -4.4460   -8.2880 H   0  0
    3.8130    0.2450   -1.5580 H   0  0
    3.8610   -2.1260   -0.9510 H   0  0
    2.1230   -2.2230   -0.9050 H   0  0
   -1.2120   -4.3070   -4.2320 H   0  0
   -4.0220   -1.1950   -3.2210 H   0  0
   -2.3840    0.4730   -3.8220 H   0  0
    0.4370   -2.6300   -4.7760 H   0  0
   -4.1380   -3.5450    4.1680 H   0  0
   -6.0300   -3.6280    2.5270 H   0  0
   -5.2830   -4.9990    1.7270 H   0  0
   -2.0920   -6.6640    0.4460 H   0  0
   -3.6160   -7.4320   -0.0280 H   0  0
   -0.2470   -4.4570    0.6200 H   0  0
   -1.5310    1.4580   -1.1290 H   0  0
   -6.0310   -5.0660    4.6990 H   0  0
   -5.6800   -6.4460    3.6450 H   0  0
   -8.2120   -2.8190   -6.9150 H   0  0
    1.2770    0.7690    3.0620 H   0  0
    2.9600    0.9110    2.5740 H   0  0
    2.3690   -0.5980    3.2570 H   0  0
   -0.9510   -1.3640    4.1340 H   0  0
   -1.7910   -2.8250    4.6040 H   0  0
   -2.7010   -1.3540    4.2880 H   0  0
   -3.5330   -3.1540   -6.2790 H   0  0
   -4.8630   -2.0080   -6.2300 H   0  0
   -4.7680   -3.2140   -7.5070 H   0  0
    3.5980   -1.4220   -3.1110 H   0  0
    2.7340    2.3560   -2.0210 H   0  0
    1.0160    2.6090   -1.8780 H   0  0
    1.7630    2.7700   -4.1350 H   0  0
    2.3640    1.1430   -4.1690 H   0  0
   -0.5120    1.4550   -3.3120 H   0  0
   -0.1940    2.0840   -4.9140 H   0  0
    0.4900   -0.7970   -6.6910 H   0  0
    1.8420   -0.9020   -5.5350 H   0  0
    1.4330    0.6340   -6.3140 H   0  0
   -2.1540   -4.9530    3.9160 H   0  0
   -2.8200   -5.7110    2.4550 H   0  0
   -3.5380   -5.9950    4.0460 H   0  0
  1  5  2  0
  1  7  1  0
  1 10  1  0
  2  6  1  0
  2  9  1  0
  2 25  1  0
  2 53  1  0
  3  8  1  0
  3 14  1  0
  3 20  1  0
  3 54  1  0
  4 12  1  0
  4 15  1  0
  4 17  1  0
  4 55  1  0
  5 13  1  0
  5 27  1  0
  6 11  1  0
  6 18  1  0
  6 63  1  0
  7 12  1  0
  7 26  1  0
  7 64  1  0
  8 11  1  0
  8 24  1  0
  8 65  1  0
  9 19  1  0
  9 22  1  0
  9 66  1  0
 10 15  1  0
 10 31  1  0
 10 67  1  0
 11 16  1  0
 11 68  1  0
 12 29  1  0
 12 69  1  0
 13 21  2  0
 13 32  1  0
 14 18  1  0
 14 49  1  0
 14 70  1  0
 15 71  1  0
 15 72  1  0
 16 19  1  0
 16 50  1  0
 16 73  1  0
 17 23  1  0
 17 36  1  0
 17 52  1  0
 18 74  1  0
 18 75  1  0
 19 76  1  0
 19 77  1  0
 20 28  1  0
 20 45  1  0
 20 78  1  0
 21 33  1  0
 21 79  1  0
 22 37  1  0
 22 58  1  0
 22 80  1  0
 23 30  3  0
 24 28  1  0
 24 81  1  0
 24 82  1  0
 25 39  1  0
 25 83  1  0
 25 84  1  0
 26 32  1  0
 26 85  1  0
 26 86  1  0
 27 48  1  0
 27 87  1  0
 27 88  1  0
 28 89  1  0
 28 90  1  0
 29 36  1  0
 29 91  1  0
 29 92  1  0
 30 93  1  0
 31 41  1  0
 31 42  2  0
 32 94  1  0
 32 95  1  0
 33 46  2  0
 33 48  1  0
 34 40  2  0
 34 51  1  0
 34 56  1  0
 35 38  1  0
 35 43  2  0
 35 44  1  0
 36 96  1  0
 36 97  1  0
 37 39  1  0
 37 57  1  0
 37 98  1  0
 38 60  1  0
 38 61  1  0
 39 99  1  0
 39100  1  0
 41 44  2  0
 41101  1  0
 42 43  1  0
 42102  1  0
 43103  1  0
 44104  1  0
 45 47  1  0
 45 62  1  0
 45105  1  0
 47 51  1  0
 47106  1  0
 47107  1  0
 48108  1  0
 48109  1  0
 49110  1  0
 50111  1  0
 51112  1  0
 51113  1  0
 52114  1  0
 53115  1  0
 53116  1  0
 53117  1  0
 54118  1  0
 54119  1  0
 54120  1  0
 55121  1  0
 55122  1  0
 55123  1  0
 57124  1  0
 58 59  1  0
 58125  1  0
 58126  1  0
 59 60  1  0
 59127  1  0
 59128  1  0
 60129  1  0
 60130  1  0
 61131  1  0
 61132  1  0
 61133  1  0
 62134  1  0
 62135  1  0
 62136  1  0
M  CHG  1  56  -1
M  END
> <Name>
BDB50151072

> <Target>
Estrogen Receptor (ER-beta)

> <Kd_from_ITC>
false

> <Uniprot_ID>
Q92731

> <source_organism>
Homo sapiens

> <Ki_in_nM>
48

$$$$
